<?xml version="1.0" encoding="UTF-8"?>

<!-- generated on 2025-12-28T00:22:29.136755+01:00 by Eclipse SUMO netedit v1_25_0+0150-04664dcec11
<neteditConfiguration xmlns:xsi="http://www.w3.org/2001/XMLSchema-instance" xsi:noNamespaceSchemaLocation="http://sumo.dlr.de/xsd/neteditConfiguration.xsd">

    <input>
        <sumocfg-file value="test3.sumocfg"/>
        <additional-files value="stops.add.xml"/>
        <route-files value="Model4.rou.xml,persons.xml"/>
        <sumo-net-file value="Model.net.xml"/>
    </input>

    <output>
        <output-file value="Model.net.xml"/>
    </output>

    <processing>
        <geometry.min-radius.fix.railways value="false"/>
        <geometry.avoid-overlap value="false"/>
        <geometry.max-grade.fix value="false"/>
        <offset.disable-normalization value="true"/>
        <lefthand value="0"/>
    </processing>

    <junctions>
        <no-turnarounds value="true"/>
        <junctions.corner-detail value="5"/>
        <junctions.limit-turn-speed value="5.50"/>
        <rectangular-lane-cut value="0"/>
    </junctions>

    <pedestrian>
        <walkingareas value="0"/>
    </pedestrian>

    <netedit>
        <ignore.additionalelements value="0"/>
        <ignore.routeelements value="0"/>
    </netedit>

</neteditConfiguration>
-->

<net version="1.20" junctionCornerDetail="5" limitTurnSpeed="5.50" avoidOverlap="0" xmlns:xsi="http://www.w3.org/2001/XMLSchema-instance" xsi:noNamespaceSchemaLocation="http://sumo.dlr.de/xsd/net_file.xsd">

    <location netOffset="0.00,0.00" convBoundary="-409.62,-898.00,799.01,949.67" origBoundary="-10000000000.00,-10000000000.00,10000000000.00,10000000000.00" projParameter="!"/>

    <type id="edgeType_0" width="1.00"/>

    <edge id=":J0_0" function="internal">
        <lane id=":J0_0_0" index="0" disallow="pedestrian" speed="31.95" length="21.22" shape="527.23,-782.45 521.14,-784.23 517.08,-786.11 513.13,-788.00 507.38,-789.78"/>
    </edge>
    <edge id=":J0_1" function="internal">
        <lane id=":J0_1_0" index="0" disallow="pedestrian" speed="9.22" length="4.62" shape="527.91,-785.58 523.57,-787.19"/>
    </edge>
    <edge id=":J0_6" function="internal">
        <lane id=":J0_6_0" index="0" disallow="pedestrian" speed="9.22" length="14.91" shape="523.57,-787.19 522.87,-787.45 519.69,-790.48 518.35,-794.67 518.86,-800.02"/>
    </edge>
    <edge id=":J0_2" function="internal">
        <lane id=":J0_2_0" index="0" disallow="pedestrian" speed="6.45" length="9.03" shape="525.08,-798.51 524.84,-796.04 525.46,-794.10 526.94,-792.70 529.26,-791.83"/>
    </edge>
    <edge id=":J0_3" function="internal">
        <lane id=":J0_3_0" index="0" disallow="pedestrian" speed="9.40" length="19.80" shape="521.97,-799.26 519.95,-794.10 516.85,-790.80 512.65,-789.36 507.38,-789.78"/>
    </edge>
    <edge id=":J0_4" function="internal">
        <lane id=":J0_4_0" index="0" disallow="pedestrian" speed="7.51" length="12.27" shape="508.10,-792.89 510.62,-792.91 512.73,-794.23 514.44,-796.85 515.75,-800.77"/>
    </edge>
    <edge id=":J0_5" function="internal">
        <lane id=":J0_5_0" index="0" disallow="pedestrian" speed="31.95" length="20.91" shape="508.10,-792.89 528.59,-788.71"/>
    </edge>
    <edge id=":J1_0" function="internal">
        <lane id=":J1_0_0" index="0" disallow="pedestrian" speed="3.91" length="2.52" shape="533.19,-825.41 532.50,-825.45 531.96,-825.27 531.56,-824.86 531.31,-824.22"/>
        <lane id=":J1_0_1" index="1" disallow="pedestrian" speed="6.08" length="7.55" shape="533.83,-828.54 531.78,-828.67 530.15,-828.12 528.96,-826.89 528.20,-824.97"/>
    </edge>
    <edge id=":J1_2" function="internal">
        <lane id=":J1_2_0" index="0" disallow="pedestrian" speed="8.97" length="17.62" shape="521.98,-826.48 523.76,-830.94 526.54,-833.82 530.33,-835.11 535.13,-834.81"/>
        <lane id=":J1_2_1" index="1" disallow="pedestrian" speed="7.66" length="12.58" shape="525.09,-825.73 526.36,-828.92 528.35,-830.97 531.05,-831.89 534.48,-831.68"/>
    </edge>
    <edge id=":J16_0" function="internal">
        <lane id=":J16_0_0" index="0" disallow="pedestrian" speed="30.00" length="13.26" shape="-237.48,43.63 -238.25,47.03 -238.81,50.13 -239.22,53.25 -239.53,56.72"/>
    </edge>
    <edge id=":J16_1" function="internal">
        <lane id=":J16_1_0" index="0" disallow="pedestrian" speed="8.22" length="3.77" shape="-237.48,43.63 -238.83,47.01 -238.92,47.10"/>
    </edge>
    <edge id=":J16_6" function="internal">
        <lane id=":J16_6_0" index="0" disallow="pedestrian" speed="8.22" length="9.88" shape="-238.92,47.10 -240.97,49.28 -243.91,50.44 -247.64,50.50"/>
    </edge>
    <edge id=":J16_2" function="internal">
        <lane id=":J16_2_0" index="0" disallow="pedestrian" speed="6.76" length="8.92" shape="-247.26,47.33 -244.81,47.29 -242.88,46.54 -241.47,45.07 -240.59,42.88"/>
    </edge>
    <edge id=":J16_3" function="internal">
        <lane id=":J16_3_0" index="0" disallow="pedestrian" speed="8.01" length="13.74" shape="-247.26,47.33 -243.64,48.29 -241.15,50.17 -239.77,52.98 -239.53,56.72"/>
    </edge>
    <edge id=":J16_4" function="internal">
        <lane id=":J16_4_0" index="0" disallow="pedestrian" speed="6.51" length="8.74" shape="-242.72,56.48 -242.87,54.10 -243.75,52.31 -245.34,51.11 -247.64,50.50"/>
    </edge>
    <edge id=":J16_5" function="internal">
        <lane id=":J16_5_0" index="0" disallow="pedestrian" speed="30.00" length="13.78" shape="-242.72,56.48 -242.39,52.93 -241.96,49.63 -241.37,46.35 -240.59,42.88"/>
    </edge>
    <edge id=":J17_0" function="internal">
        <lane id=":J17_0_0" index="0" disallow="pedestrian" speed="3.97" length="1.91" shape="-397.02,42.68 -397.50,42.85 -397.86,43.12 -398.12,43.49 -398.26,43.97"/>
    </edge>
    <edge id=":J17_1" function="internal">
        <lane id=":J17_1_0" index="0" disallow="pedestrian" speed="6.20" length="5.74" shape="-401.42,43.43 -400.98,41.99 -400.21,40.86 -399.11,40.05 -397.69,39.55"/>
    </edge>
    <edge id=":J18_0" function="internal">
        <lane id=":J18_0_0" index="0" disallow="pedestrian" speed="6.08" length="7.83" shape="-406.45,188.44 -408.56,188.04 -410.02,187.05 -410.84,185.49 -411.01,183.34"/>
    </edge>
    <edge id=":J18_1" function="internal">
        <lane id=":J18_1_0" index="0" disallow="pedestrian" speed="3.90" length="2.61" shape="-407.82,183.55 -407.76,184.26 -407.49,184.78 -407.00,185.11 -406.30,185.24"/>
    </edge>
    <edge id=":J19_0" function="internal">
        <lane id=":J19_0_0" index="0" disallow="pedestrian" speed="6.52" length="8.62" shape="-246.17,184.07 -246.90,181.85 -248.17,180.34 -249.97,179.55 -252.31,179.49"/>
    </edge>
    <edge id=":J19_1" function="internal">
        <lane id=":J19_1_0" index="0" disallow="pedestrian" speed="30.00" length="13.54" shape="-246.17,184.07 -246.73,180.59 -247.09,177.37 -247.28,174.12 -247.32,170.60"/>
    </edge>
    <edge id=":J19_2" function="internal">
        <lane id=":J19_2_0" index="0" disallow="pedestrian" speed="30.00" length="12.95" shape="-244.12,170.63 -244.09,174.06 -243.92,177.10 -243.57,180.13 -243.02,183.51"/>
    </edge>
    <edge id=":J19_3" function="internal">
        <lane id=":J19_3_0" index="0" disallow="pedestrian" speed="8.16" length="3.71" shape="-244.12,170.63 -244.66,174.16 -244.73,174.28"/>
    </edge>
    <edge id=":J19_6" function="internal">
        <lane id=":J19_6_0" index="0" disallow="pedestrian" speed="8.16" length="9.71" shape="-244.73,174.28 -246.20,176.82 -248.76,178.59 -252.31,179.49"/>
    </edge>
    <edge id=":J19_4" function="internal">
        <lane id=":J19_4_0" index="0" disallow="pedestrian" speed="6.77" length="8.77" shape="-252.66,176.45 -250.34,175.82 -248.68,174.63 -247.67,172.89 -247.32,170.60"/>
    </edge>
    <edge id=":J19_5" function="internal">
        <lane id=":J19_5_0" index="0" disallow="pedestrian" speed="7.94" length="13.50" shape="-252.66,176.45 -248.99,176.48 -246.16,177.67 -244.17,180.01 -243.02,183.51"/>
    </edge>
    <edge id=":J2_0" function="internal">
        <lane id=":J2_0_0" index="0" disallow="pedestrian" speed="8.96" length="18.40" shape="619.30,-817.46 624.06,-815.74 627.09,-812.92 628.38,-808.99 627.94,-803.95"/>
        <lane id=":J2_0_1" index="1" disallow="pedestrian" speed="7.65" length="13.14" shape="618.65,-814.32 622.05,-813.10 624.22,-811.08 625.14,-808.27 624.83,-804.67"/>
    </edge>
    <edge id=":J2_2" function="internal">
        <lane id=":J2_2_0" index="0" disallow="pedestrian" speed="3.90" length="2.63" shape="618.59,-806.12 618.66,-806.84 618.47,-807.41 618.04,-807.81 617.36,-808.05"/>
        <lane id=":J2_2_1" index="1" disallow="pedestrian" speed="6.07" length="7.89" shape="621.71,-805.40 621.90,-807.56 621.34,-809.24 620.05,-810.45 618.01,-811.19"/>
    </edge>
    <edge id=":J23_0" function="internal">
        <lane id=":J23_0_0" index="0" disallow="pedestrian" speed="30.00" length="14.15" shape="-213.77,278.69 -218.72,265.43"/>
    </edge>
    <edge id=":J23_1" function="internal">
        <lane id=":J23_1_0" index="0" disallow="pedestrian" speed="7.90" length="3.99" shape="-213.77,278.69 -214.52,274.77"/>
    </edge>
    <edge id=":J23_6" function="internal">
        <lane id=":J23_6_0" index="0" disallow="pedestrian" speed="7.90" length="10.44" shape="-214.52,274.77 -213.79,271.63 -211.61,269.25 -207.95,267.66"/>
    </edge>
    <edge id=":J23_2" function="internal">
        <lane id=":J23_2_0" index="0" disallow="pedestrian" speed="6.38" length="9.04" shape="-207.10,270.74 -209.39,271.74 -210.76,273.23 -211.21,275.20 -210.75,277.65"/>
    </edge>
    <edge id=":J23_3" function="internal">
        <lane id=":J23_3_0" index="0" disallow="pedestrian" speed="8.37" length="14.22" shape="-207.10,270.74 -211.02,271.29 -214.26,270.59 -216.83,268.64 -218.72,265.43"/>
    </edge>
    <edge id=":J23_4" function="internal">
        <lane id=":J23_4_0" index="0" disallow="pedestrian" speed="6.92" length="9.47" shape="-215.73,264.22 -214.49,266.32 -212.78,267.59 -210.60,268.04 -207.95,267.66"/>
    </edge>
    <edge id=":J23_5" function="internal">
        <lane id=":J23_5_0" index="0" disallow="pedestrian" speed="30.00" length="14.33" shape="-215.73,264.22 -210.75,277.65"/>
    </edge>
    <edge id=":J24_0" function="internal">
        <lane id=":J24_0_0" index="0" disallow="pedestrian" speed="7.38" length="10.96" shape="86.68,222.17 85.36,219.13 83.61,217.11 81.44,216.13 78.85,216.17"/>
    </edge>
    <edge id=":J24_1" function="internal">
        <lane id=":J24_1_0" index="0" disallow="pedestrian" speed="50.00" length="16.72" shape="86.68,222.17 81.64,206.25"/>
        <lane id=":J24_1_1" index="1" speed="50.00" length="16.72" shape="89.73,221.22 84.68,205.26"/>
    </edge>
    <edge id=":J24_3" function="internal">
        <lane id=":J24_3_0" index="0" disallow="pedestrian" speed="8.22" length="4.18" shape="89.73,221.22 89.17,217.08"/>
    </edge>
    <edge id=":J24_14" function="internal">
        <lane id=":J24_14_0" index="0" disallow="pedestrian" speed="8.22" length="15.00" shape="89.17,217.08 89.05,216.20 90.61,212.74 94.41,210.82 100.46,210.47"/>
    </edge>
    <edge id=":J24_4" function="internal">
        <lane id=":J24_4_0" index="0" disallow="pedestrian" speed="5.87" length="9.12" shape="100.27,213.66 97.63,213.88 96.01,214.89 95.42,216.71 95.84,219.32"/>
    </edge>
    <edge id=":J24_5" function="internal">
        <lane id=":J24_5_0" index="0" disallow="pedestrian" speed="30.00" length="21.60" shape="100.27,213.66 95.51,213.79 89.53,214.44 83.56,215.33 78.85,216.17"/>
    </edge>
    <edge id=":J24_6" function="internal">
        <lane id=":J24_6_0" index="0" disallow="pedestrian" speed="10.71" length="18.80" shape="100.27,213.66 94.38,212.85 89.82,211.18 86.58,208.65 84.68,205.26"/>
    </edge>
    <edge id=":J24_7" function="internal">
        <lane id=":J24_7_0" index="0" disallow="pedestrian" speed="8.95" length="12.89" shape="90.77,203.29 92.19,206.26 94.28,208.45 97.04,209.85 100.46,210.47"/>
    </edge>
    <edge id=":J24_8" function="internal">
        <lane id=":J24_8_0" index="0" disallow="pedestrian" speed="50.00" length="16.80" shape="90.77,203.29 95.84,219.32"/>
        <lane id=":J24_8_1" index="1" speed="50.00" length="16.80" shape="87.72,204.27 92.79,220.27"/>
    </edge>
    <edge id=":J24_10" function="internal">
        <lane id=":J24_10_0" index="0" disallow="pedestrian" speed="8.45" length="4.17" shape="87.72,204.27 88.30,208.40"/>
    </edge>
    <edge id=":J24_15" function="internal">
        <lane id=":J24_15_0" index="0" disallow="pedestrian" speed="8.45" length="13.19" shape="88.30,208.40 88.33,208.59 87.05,212.01 83.89,214.54 78.85,216.17"/>
    </edge>
    <edge id=":J24_11" function="internal">
        <lane id=":J24_11_0" index="0" disallow="pedestrian" speed="6.38" length="9.68" shape="77.79,213.44 80.23,212.65 81.69,211.19 82.16,209.05 81.64,206.25"/>
    </edge>
    <edge id=":J24_12" function="internal">
        <lane id=":J24_12_0" index="0" disallow="pedestrian" speed="30.00" length="22.89" shape="77.79,213.44 82.71,212.61 89.10,211.56 95.50,210.70 100.46,210.47"/>
    </edge>
    <edge id=":J24_13" function="internal">
        <lane id=":J24_13_0" index="0" disallow="pedestrian" speed="9.51" length="18.16" shape="77.79,213.44 83.33,213.15 87.68,214.19 90.83,216.57 92.79,220.27"/>
    </edge>
    <edge id=":J25_0" function="internal">
        <lane id=":J25_0_0" index="0" disallow="pedestrian" speed="6.66" length="9.33" shape="-108.16,542.24 -109.30,540.05 -110.93,538.74 -113.04,538.32 -115.62,538.78"/>
    </edge>
    <edge id=":J25_1" function="internal">
        <lane id=":J25_1_0" index="0" disallow="pedestrian" speed="30.00" length="14.51" shape="-108.16,542.24 -113.33,528.68"/>
    </edge>
    <edge id=":J25_2" function="internal">
        <lane id=":J25_2_0" index="0" disallow="pedestrian" speed="30.00" length="14.71" shape="-110.38,527.45 -105.13,541.19"/>
    </edge>
    <edge id=":J25_3" function="internal">
        <lane id=":J25_3_0" index="0" disallow="pedestrian" speed="7.85" length="4.38" shape="-110.38,527.45 -109.37,531.35 -109.43,531.70"/>
    </edge>
    <edge id=":J25_6" function="internal">
        <lane id=":J25_6_0" index="0" disallow="pedestrian" speed="7.85" length="10.15" shape="-109.43,531.70 -109.91,534.54 -111.99,537.02 -115.62,538.78"/>
    </edge>
    <edge id=":J25_4" function="internal">
        <lane id=":J25_4_0" index="0" disallow="pedestrian" speed="6.33" length="9.04" shape="-116.59,535.73 -114.34,534.64 -113.04,533.10 -112.71,531.11 -113.33,528.68"/>
    </edge>
    <edge id=":J25_5" function="internal">
        <lane id=":J25_5_0" index="0" disallow="pedestrian" speed="8.13" length="14.40" shape="-116.59,535.73 -112.64,535.04 -109.42,535.72 -106.91,537.77 -105.13,541.19"/>
    </edge>
    <edge id=":J27_0" function="internal">
        <lane id=":J27_0_0" index="0" disallow="pedestrian" speed="6.08" length="7.61" shape="-236.03,579.89 -236.56,577.88 -236.33,576.17 -235.33,574.76 -233.57,573.65"/>
    </edge>
    <edge id=":J27_1" function="internal">
        <lane id=":J27_1_0" index="0" disallow="pedestrian" speed="3.91" length="2.54" shape="-232.26,576.57 -232.85,576.94 -233.18,577.41 -233.26,577.98 -233.08,578.65"/>
    </edge>
    <edge id=":J28_0" function="internal">
        <lane id=":J28_0_0" index="0" disallow="pedestrian" speed="6.15" length="6.29" shape="-170.74,722.42 -172.41,722.48 -173.82,722.05 -174.98,721.14 -175.88,719.73"/>
    </edge>
    <edge id=":J28_1" function="internal">
        <lane id=":J28_1_0" index="0" disallow="pedestrian" speed="3.94" length="2.10" shape="-172.99,718.37 -172.68,718.84 -172.30,719.15 -171.83,719.29 -171.27,719.27"/>
    </edge>
    <edge id=":J29_0" function="internal">
        <lane id=":J29_0_0" index="0" disallow="pedestrian" speed="30.00" length="14.51" shape="-41.81,682.87 -55.57,687.48"/>
    </edge>
    <edge id=":J29_1" function="internal">
        <lane id=":J29_1_0" index="0" disallow="pedestrian" speed="8.24" length="4.03" shape="-41.81,682.87 -45.54,683.57 -45.76,683.52"/>
    </edge>
    <edge id=":J29_6" function="internal">
        <lane id=":J29_6_0" index="0" disallow="pedestrian" speed="8.24" length="10.32" shape="-45.76,683.52 -48.70,682.89 -51.29,680.82 -53.32,677.37"/>
    </edge>
    <edge id=":J29_2" function="internal">
        <lane id=":J29_2_0" index="0" disallow="pedestrian" speed="6.79" length="9.43" shape="-50.37,676.13 -49.03,678.43 -47.33,679.82 -45.27,680.29 -42.85,679.85"/>
    </edge>
    <edge id=":J29_3" function="internal">
        <lane id=":J29_3_0" index="0" disallow="pedestrian" speed="7.85" length="14.53" shape="-50.37,676.13 -49.35,680.03 -49.88,683.22 -51.95,685.70 -55.57,687.48"/>
    </edge>
    <edge id=":J29_4" function="internal">
        <lane id=":J29_4_0" index="0" disallow="pedestrian" speed="6.33" length="9.04" shape="-56.55,684.44 -54.30,683.33 -53.01,681.78 -52.69,679.80 -53.32,677.37"/>
    </edge>
    <edge id=":J29_5" function="internal">
        <lane id=":J29_5_0" index="0" disallow="pedestrian" speed="30.00" length="14.45" shape="-56.55,684.44 -42.85,679.85"/>
    </edge>
    <edge id=":J3_0" function="internal">
        <lane id=":J3_0_0" index="0" disallow="pedestrian" speed="30.00" length="14.73" shape="-95.59,577.08 -100.87,563.33"/>
    </edge>
    <edge id=":J3_1" function="internal">
        <lane id=":J3_1_0" index="0" disallow="pedestrian" speed="7.84" length="4.40" shape="-95.59,577.08 -96.62,573.16 -96.56,572.81"/>
    </edge>
    <edge id=":J3_6" function="internal">
        <lane id=":J3_6_0" index="0" disallow="pedestrian" speed="7.84" length="10.17" shape="-96.56,572.81 -96.08,569.97 -93.98,567.50 -90.33,565.76"/>
    </edge>
    <edge id=":J3_2" function="internal">
        <lane id=":J3_2_0" index="0" disallow="pedestrian" speed="6.31" length="9.04" shape="-89.38,568.81 -91.65,569.89 -92.95,571.42 -93.28,573.40 -92.64,575.84"/>
    </edge>
    <edge id=":J3_3" function="internal">
        <lane id=":J3_3_0" index="0" disallow="pedestrian" speed="8.15" length="14.42" shape="-89.38,568.81 -93.35,569.48 -96.59,568.79 -99.09,566.74 -100.87,563.33"/>
    </edge>
    <edge id=":J3_4" function="internal">
        <lane id=":J3_4_0" index="0" disallow="pedestrian" speed="6.69" length="9.38" shape="-97.85,562.28 -96.70,564.47 -95.06,565.78 -92.94,566.20 -90.33,565.76"/>
    </edge>
    <edge id=":J3_5" function="internal">
        <lane id=":J3_5_0" index="0" disallow="pedestrian" speed="30.00" length="14.52" shape="-97.85,562.28 -92.64,575.84"/>
    </edge>
    <edge id=":J30_0" function="internal">
        <lane id=":J30_0_0" index="0" disallow="pedestrian" speed="7.43" length="11.84" shape="217.64,627.08 216.33,624.94 214.19,623.78 211.20,623.61 207.38,624.43"/>
    </edge>
    <edge id=":J30_1" function="internal">
        <lane id=":J30_1_0" index="0" disallow="pedestrian" speed="50.00" length="14.42" shape="217.64,627.08 213.12,613.39"/>
    </edge>
    <edge id=":J30_2" function="internal">
        <lane id=":J30_2_0" index="0" disallow="pedestrian" speed="50.00" length="14.78" shape="219.22,611.42 220.17,615.99 220.19,619.58 220.09,622.75 220.67,626.05"/>
    </edge>
    <edge id=":J30_3" function="internal">
        <lane id=":J30_3_0" index="0" disallow="pedestrian" speed="8.65" length="3.64" shape="216.17,612.40 216.61,616.02"/>
    </edge>
    <edge id=":J30_6" function="internal">
        <lane id=":J30_6_0" index="0" disallow="pedestrian" speed="8.65" length="13.28" shape="216.61,616.02 216.64,616.33 215.34,619.64 212.25,622.35 207.38,624.43"/>
    </edge>
    <edge id=":J30_4" function="internal">
        <lane id=":J30_4_0" index="0" disallow="pedestrian" speed="6.48" length="9.03" shape="206.44,621.38 208.68,620.32 210.03,618.79 210.50,616.81 210.08,614.37"/>
    </edge>
    <edge id=":J30_5" function="internal">
        <lane id=":J30_5_0" index="0" disallow="pedestrian" speed="8.76" length="16.87" shape="206.44,621.38 211.62,620.34 215.73,620.77 218.74,622.68 220.67,626.05"/>
    </edge>
    <edge id=":J31_0" function="internal">
        <lane id=":J31_0_0" index="0" disallow="pedestrian" speed="50.00" length="14.87" shape="157.36,447.05 153.02,432.86"/>
        <lane id=":J31_0_1" index="1" speed="50.00" length="14.87" shape="160.43,446.13 156.07,431.89"/>
    </edge>
    <edge id=":J31_2" function="internal">
        <lane id=":J31_2_0" index="0" disallow="pedestrian" speed="8.18" length="4.32" shape="160.43,446.13 159.86,441.85"/>
    </edge>
    <edge id=":J31_8" function="internal">
        <lane id=":J31_8_0" index="0" disallow="pedestrian" speed="8.18" length="15.34" shape="159.86,441.85 159.73,440.88 161.35,437.39 165.27,435.68 171.51,435.74"/>
    </edge>
    <edge id=":J31_3" function="internal">
        <lane id=":J31_3_0" index="0" disallow="pedestrian" speed="5.79" length="9.15" shape="171.10,438.91 168.41,438.94 166.76,439.85 166.14,441.63 166.55,444.28"/>
    </edge>
    <edge id=":J31_4" function="internal">
        <lane id=":J31_4_0" index="0" disallow="pedestrian" speed="10.64" length="17.30" shape="171.10,438.91 165.16,437.83 160.67,436.30 157.64,434.32 156.07,431.89"/>
    </edge>
    <edge id=":J31_5" function="internal">
        <lane id=":J31_5_0" index="0" disallow="pedestrian" speed="8.79" length="11.59" shape="162.17,429.95 163.32,432.11 165.26,433.79 167.99,435.00 171.51,435.74"/>
    </edge>
    <edge id=":J31_6" function="internal">
        <lane id=":J31_6_0" index="0" disallow="pedestrian" speed="50.00" length="14.96" shape="162.17,429.95 166.55,444.28"/>
        <lane id=":J31_6_1" index="1" speed="50.00" length="14.96" shape="159.12,430.92 163.49,445.21"/>
    </edge>
    <edge id=":J32_0" function="internal">
        <lane id=":J32_0_0" index="0" disallow="pedestrian" speed="4.03" length="1.65" shape="449.71,495.38 449.53,494.99 449.28,494.68 448.95,494.46 448.55,494.32"/>
    </edge>
    <edge id=":J32_1" function="internal">
        <lane id=":J32_1_0" index="0" disallow="pedestrian" speed="6.31" length="4.96" shape="449.26,491.20 450.47,491.62 451.46,492.30 452.22,493.22 452.75,494.39"/>
    </edge>
    <edge id=":J33_0" function="internal">
        <lane id=":J33_0_0" index="0" disallow="pedestrian" speed="6.63" length="9.26" shape="215.02,-325.34 212.63,-325.98 210.58,-325.68 208.85,-324.44 207.46,-322.26"/>
    </edge>
    <edge id=":J33_1" function="internal">
        <lane id=":J33_1_0" index="0" disallow="pedestrian" speed="30.00" length="20.93" shape="215.02,-325.34 195.83,-333.69"/>
    </edge>
    <edge id=":J33_2" function="internal">
        <lane id=":J33_2_0" index="0" disallow="pedestrian" speed="8.94" length="17.19" shape="215.02,-325.34 210.46,-327.94 207.66,-331.02 206.60,-334.57 207.30,-338.59"/>
    </edge>
    <edge id=":J33_3" function="internal">
        <lane id=":J33_3_0" index="0" disallow="pedestrian" speed="6.86" length="9.72" shape="213.30,-336.38 212.68,-333.67 212.97,-331.42 214.17,-329.62 216.29,-328.28"/>
    </edge>
    <edge id=":J33_4" function="internal">
        <lane id=":J33_4_0" index="0" disallow="pedestrian" speed="50.00" length="15.16" shape="213.30,-336.38 207.46,-322.26"/>
        <lane id=":J33_4_1" index="1" speed="50.00" length="15.16" shape="210.30,-337.49 204.56,-323.60"/>
    </edge>
    <edge id=":J33_6" function="internal">
        <lane id=":J33_6_0" index="0" disallow="pedestrian" speed="8.57" length="4.08" shape="210.30,-337.49 208.19,-333.99"/>
    </edge>
    <edge id=":J33_14" function="internal">
        <lane id=":J33_14_0" index="0" disallow="pedestrian" speed="8.57" length="13.09" shape="208.19,-333.99 205.08,-332.19 200.96,-332.09 195.83,-333.69"/>
    </edge>
    <edge id=":J33_7" function="internal">
        <lane id=":J33_7_0" index="0" disallow="pedestrian" speed="6.38" length="9.04" shape="197.10,-336.63 199.51,-335.97 201.51,-336.26 203.11,-337.50 204.29,-339.70"/>
    </edge>
    <edge id=":J33_8" function="internal">
        <lane id=":J33_8_0" index="0" disallow="pedestrian" speed="30.00" length="20.93" shape="197.10,-336.63 216.29,-328.28"/>
    </edge>
    <edge id=":J33_9" function="internal">
        <lane id=":J33_9_0" index="0" disallow="pedestrian" speed="8.66" length="17.08" shape="197.10,-336.63 201.78,-333.98 204.57,-330.93 205.50,-327.47 204.56,-323.60"/>
    </edge>
    <edge id=":J33_10" function="internal">
        <lane id=":J33_10_0" index="0" disallow="pedestrian" speed="6.49" length="9.13" shape="198.75,-326.28 199.45,-328.66 199.20,-330.69 197.99,-332.37 195.83,-333.69"/>
    </edge>
    <edge id=":J33_11" function="internal">
        <lane id=":J33_11_0" index="0" disallow="pedestrian" speed="50.00" length="14.65" shape="198.75,-326.28 204.29,-339.70"/>
        <lane id=":J33_11_1" index="1" speed="50.00" length="14.65" shape="201.65,-324.94 207.30,-338.59"/>
    </edge>
    <edge id=":J33_13" function="internal">
        <lane id=":J33_13_0" index="0" disallow="pedestrian" speed="8.76" length="3.19" shape="201.65,-324.94 203.51,-327.53"/>
    </edge>
    <edge id=":J33_15" function="internal">
        <lane id=":J33_15_0" index="0" disallow="pedestrian" speed="8.76" length="13.75" shape="203.51,-327.53 203.97,-328.18 207.18,-329.81 211.29,-329.85 216.29,-328.28"/>
    </edge>
    <edge id=":J34_0" function="internal">
        <lane id=":J34_0_0" index="0" disallow="pedestrian" speed="7.78" length="12.00" shape="399.59,-814.71 396.38,-814.99 393.73,-814.22 391.63,-812.41 390.08,-809.56"/>
    </edge>
    <edge id=":J34_1" function="internal">
        <lane id=":J34_1_0" index="0" disallow="pedestrian" speed="50.00" length="22.71" shape="399.59,-814.71 377.42,-819.63"/>
    </edge>
    <edge id=":J34_2" function="internal">
        <lane id=":J34_2_0" index="0" disallow="pedestrian" speed="50.00" length="22.77" shape="378.09,-822.76 400.31,-817.82"/>
    </edge>
    <edge id=":J34_3" function="internal">
        <lane id=":J34_3_0" index="0" disallow="pedestrian" speed="8.44" length="17.73" shape="378.09,-822.76 383.35,-821.01 386.60,-818.41 387.85,-814.97 387.09,-810.68"/>
    </edge>
    <edge id=":J34_4" function="internal">
        <lane id=":J34_4_0" index="0" disallow="pedestrian" speed="6.21" length="9.05" shape="381.09,-812.93 381.64,-815.40 381.21,-817.35 379.80,-818.76 377.42,-819.63"/>
    </edge>
    <edge id=":J34_5" function="internal">
        <lane id=":J34_5_0" index="0" disallow="pedestrian" speed="9.68" length="19.10" shape="384.09,-811.80 386.37,-815.55 389.83,-817.80 394.48,-818.56 400.31,-817.82"/>
    </edge>
    <edge id=":J35_0" function="internal">
        <lane id=":J35_0_0" index="0" disallow="pedestrian" speed="7.11" length="9.73" shape="321.46,-608.82 318.63,-609.10 316.34,-608.60 314.60,-607.32 313.40,-605.26"/>
    </edge>
    <edge id=":J35_1" function="internal">
        <lane id=":J35_1_0" index="0" disallow="pedestrian" speed="30.00" length="19.89" shape="321.46,-608.82 302.02,-613.08"/>
    </edge>
    <edge id=":J35_2" function="internal">
        <lane id=":J35_2_0" index="0" disallow="pedestrian" speed="8.18" length="16.52" shape="321.46,-608.82 316.16,-610.49 312.79,-612.80 311.36,-615.74 311.86,-619.32"/>
    </edge>
    <edge id=":J35_3" function="internal">
        <lane id=":J35_3_0" index="0" disallow="pedestrian" speed="5.82" length="7.80" shape="317.85,-617.07 317.57,-615.30 318.19,-613.85 319.71,-612.73 322.13,-611.95"/>
    </edge>
    <edge id=":J35_4" function="internal">
        <lane id=":J35_4_0" index="0" disallow="pedestrian" speed="50.00" length="12.62" shape="317.85,-617.07 313.40,-605.26"/>
        <lane id=":J35_4_1" index="1" disallow="pedestrian" speed="50.00" length="12.62" shape="314.85,-618.20 310.41,-606.38"/>
    </edge>
    <edge id=":J35_6" function="internal">
        <lane id=":J35_6_0" index="0" disallow="pedestrian" speed="8.73" length="3.59" shape="314.85,-618.20 313.01,-615.12"/>
    </edge>
    <edge id=":J35_14" function="internal">
        <lane id=":J35_14_0" index="0" disallow="pedestrian" speed="8.73" length="11.66" shape="313.01,-615.12 310.26,-613.24 306.60,-612.56 302.02,-613.08"/>
    </edge>
    <edge id=":J35_7" function="internal">
        <lane id=":J35_7_0" index="0" disallow="pedestrian" speed="6.57" length="8.25" shape="302.72,-616.20 304.68,-616.12 306.35,-616.79 307.75,-618.24 308.86,-620.44"/>
    </edge>
    <edge id=":J35_8" function="internal">
        <lane id=":J35_8_0" index="0" disallow="pedestrian" speed="30.00" length="19.87" shape="302.72,-616.20 322.13,-611.95"/>
    </edge>
    <edge id=":J35_9" function="internal">
        <lane id=":J35_9_0" index="0" disallow="pedestrian" speed="7.73" length="14.60" shape="302.72,-616.20 307.14,-614.71 309.90,-612.58 310.98,-609.80 310.41,-606.38"/>
    </edge>
    <edge id=":J35_10" function="internal">
        <lane id=":J35_10_0" index="0" disallow="pedestrian" speed="5.19" length="5.95" shape="304.42,-608.64 304.78,-610.27 304.50,-611.55 303.58,-612.49 302.02,-613.08"/>
    </edge>
    <edge id=":J35_11" function="internal">
        <lane id=":J35_11_0" index="0" disallow="pedestrian" speed="50.00" length="12.61" shape="304.42,-608.64 308.86,-620.44"/>
        <lane id=":J35_11_1" index="1" speed="50.00" length="12.61" shape="307.41,-607.51 311.86,-619.32"/>
    </edge>
    <edge id=":J35_13" function="internal">
        <lane id=":J35_13_0" index="0" disallow="pedestrian" speed="9.17" length="3.28" shape="307.41,-607.51 309.21,-610.25"/>
    </edge>
    <edge id=":J35_15" function="internal">
        <lane id=":J35_15_0" index="0" disallow="pedestrian" speed="9.17" length="13.53" shape="309.21,-610.25 309.33,-610.43 312.42,-612.14 316.69,-612.65 322.13,-611.95"/>
    </edge>
    <edge id=":J36_0" function="internal">
        <lane id=":J36_0_0" index="0" disallow="pedestrian" speed="7.22" length="11.38" shape="275.42,-483.02 272.16,-483.80 269.51,-483.48 267.47,-482.07 266.04,-479.57"/>
    </edge>
    <edge id=":J36_1" function="internal">