<?xml version="1.0" ?>
<routes xmlns:xsi="http://www.w3.org/2001/XMLSchema-instance" xsi:noNamespaceSchemaLocation="http://sumo.dlr.de/xsd/routes_file.xsd">
    <person id="t_0" depart="3702.0">
        <ride from="E5" to="E22" lines="taxi"/>
        <stop lane="E22_0" duration="1140"/>
        <ride from="E22" to="E5" lines="taxi"/>
    </person>
    <person id="t_1" depart="3720.0">
        <ride from="-E64" to="E22" lines="taxi"/>
        <stop lane="E22_0" duration="1140"/>
        <ride from="E22" to="-E64" lines="taxi"/>
    </person>
    <person id="t_2" depart="3871.0">
        <ride from="E11" to="E22" lines="taxi"/>
        <stop lane="E22_0" duration="1140"/>
        <ride from="E22" to="E11" lines="taxi"/>
    </person>
    <person id="t_3" depart="4112.0">
        <ride from="-E62" to="E22" lines="taxi"/>
        <stop lane="E22_0" duration="1140"/>
        <ride from="E22" to="-E62" lines="taxi"/>
    </person>
    <person id="t_4" depart="4302.0">
        <ride from="-E19" to="E22" lines="taxi"/>
        <stop lane="E22_0" duration="1140"/>
        <ride from="E22" to="-E19" lines="taxi"/>
    </person>
    <person id="t_5" depart="4366.0">
        <ride from="-E42" to="E22" lines="taxi"/>
        <stop lane="E22_0" duration="1140"/>
        <ride from="E22" to="-E42" lines="taxi"/>
    </person>
    <person id="t_6" depart="4445.0">
        <ride from="-E64" to="E22" lines="taxi"/>
        <stop lane="E22_0" duration="1140"/>
        <ride from="E22" to="-E64" lines="taxi"/>
    </person>
    <person id="t_7" depart="4483.0">
        <ride from="-E41" to="E22" lines="taxi"/>
        <stop lane="E22_0" duration="1140"/>
        <ride from="E22" to="-E41" lines="taxi"/>
    </person>
    <person id="t_8" depart="4602.0">
        <ride from="-E30" to="-E27" lines="taxi"/>
        <stop lane="-E27_0" duration="1140"/>
        <ride from="-E27" to="-E30" lines="taxi"/>
    </person>
    <person id="t_9" depart="4808.0">
        <ride from="-E0" to="E22" lines="taxi"/>
        <stop lane="E22_0" duration="1140"/>
        <ride from="E22" to="-E0" lines="taxi"/>
    </person>
    <person id="t_10" depart="4983.0">
        <ride from="-E24" to="E22" lines="taxi"/>
        <stop lane="E22_0" duration="1140"/>
        <ride from="E22" to="-E24" lines="taxi"/>
    </person>
    <person id="t_11" depart="5119.0">
        <ride from="-E43" to="E22" lines="taxi"/>
        <stop lane="E22_0" duration="1140"/>
        <ride from="E22" to="-E43" lines="taxi"/>
    </person>
    <person id="t_12" depart="5431.0">
        <ride from="-E46" to="E22" lines="taxi"/>
        <stop lane="E22_0" duration="1140"/>
        <ride from="E22" to="-E46" lines="taxi"/>
    </person>
    <person id="t_13" depart="5754.0">
        <ride from="-E4" to="E22" lines="taxi"/>
        <stop lane="E22_0" duration="1140"/>
        <ride from="E22" to="-E4" lines="taxi"/>
    </person>
    <person id="t_14" depart="6661.0">
        <ride from="-E52" to="E22" lines="taxi"/>
        <stop lane="E22_0" duration="1140"/>
        <ride from="E22" to="-E52" lines="taxi"/>
    </person>
    <person id="t_15" depart="6782.0">
        <ride from="-E12" to="E22" lines="taxi"/>
        <stop lane="E22_0" duration="1140"/>
        <ride from="E22" to="-E12" lines="taxi"/>
    </person>
    <person id="t_16" depart="6837.0">
        <ride from="-E52" to="E22" lines="taxi"/>
        <stop lane="E22_0" duration="1140"/>
        <ride from="E22" to="-E52" lines="taxi"/>
    </person>
    <person id="t_17" depart="6940.0">
        <ride from="-E15" to="E22" lines="taxi"/>
        <stop lane="E22_0" duration="1140"/>
        <ride from="E22" to="-E15" lines="taxi"/>
    </person>
    <person id="t_18" depart="7318.0">
        <ride from="-E42" to="E22" lines="taxi"/>
        <stop lane="E22_0" duration="1140"/>
        <ride from="E22" to="-E42" lines="taxi"/>
    </person>
    <person id="t_19" depart="7329.0">
        <ride from="E5" to="E22" lines="taxi"/>
        <stop lane="E22_0" duration="1140"/>
        <ride from="E22" to="E5" lines="taxi"/>
    </person>
    <person id="t_20" depart="7344.0">
        <ride from="-E0" to="E22" lines="taxi"/>
        <stop lane="E22_0" duration="1140"/>
        <ride from="E22" to="-E0" lines="taxi"/>
    </person>
    <person id="t_21" depart="7388.0">
        <ride from="-E0" to="E22" lines="taxi"/>
        <stop lane="E22_0" duration="1140"/>
        <ride from="E22" to="-E0" lines="taxi"/>
    </person>
    <person id="t_22" depart="7426.0">
        <ride from="E11" to="E41" lines="taxi"/>
        <stop lane="E41_0" duration="1140"/>
        <ride from="E41" to="E11" lines="taxi"/>
    </person>
    <person id="t_23" depart="7630.0">
        <ride from="-E43" to="E22" lines="taxi"/>
        <stop lane="E22_0" duration="1140"/>
        <ride from="E22" to="-E43" lines="taxi"/>
    </person>
    <person id="t_24" depart="7672.0">
        <ride from="-E0" to="E22" lines="taxi"/>
        <stop lane="E22_0" duration="1140"/>
        <ride from="E22" to="-E0" lines="taxi"/>
    </person>
    <person id="t_25" depart="7778.0">
        <ride from="-E62" to="E22" lines="taxi"/>
        <stop lane="E22_0" duration="1140"/>
        <ride from="E22" to="-E62" lines="taxi"/>
    </person>
    <person id="t_26" depart="7780.0">
        <ride from="E11" to="E22" lines="taxi"/>
        <stop lane="E22_0" duration="1140"/>
        <ride from="E22" to="E11" lines="taxi"/>
    </person>
    <person id="t_27" depart="7923.0">
        <ride from="E9" to="E41" lines="taxi"/>
        <stop lane="E41_0" duration="1140"/>
        <ride from="E41" to="E9" lines="taxi"/>
    </person>
    <person id="t_28" depart="7957.0">
        <ride from="E24" to="-E42" lines="taxi"/>
        <stop lane="-E42_0" duration="1140"/>
        <ride from="-E42" to="E24" lines="taxi"/>
    </person>
    <person id="t_29" depart="7991.0">
        <ride from="-E12" to="E22" lines="taxi"/>
        <stop lane="E22_0" duration="1140"/>
        <ride from="E22" to="-E12" lines="taxi"/>
    </person>
    <person id="t_30" depart="8117.0">
        <ride from="-E12" to="E22" lines="taxi"/>
        <stop lane="E22_0" duration="1140"/>
        <ride from="E22" to="-E12" lines="taxi"/>
    </person>
    <person id="t_31" depart="8197.0">
        <ride from="-E53" to="E22" lines="taxi"/>
        <stop lane="E22_0" duration="1140"/>
        <ride from="E22" to="-E53" lines="taxi"/>
    </person>
    <person id="t_32" depart="8198.0">
        <ride from="-E64" to="E22" lines="taxi"/>
        <stop lane="E22_0" duration="1140"/>
        <ride from="E22" to="-E64" lines="taxi"/>
    </person>
    <person id="t_33" depart="8268.0">
        <ride from="-E0" to="E41" lines="taxi"/>
        <stop lane="E41_0" duration="1140"/>
        <ride from="E41" to="-E0" lines="taxi"/>
    </person>
    <person id="t_34" depart="8271.0">
        <ride from="-E55" to="E22" lines="taxi"/>
        <stop lane="E22_0" duration="1140"/>
        <ride from="E22" to="-E55" lines="taxi"/>
    </person>
    <person id="t_35" depart="8276.0">
        <ride from="-E41" to="E22" lines="taxi"/>
        <stop lane="E22_0" duration="1140"/>
        <ride from="E22" to="-E41" lines="taxi"/>
    </person>
    <person id="t_36" depart="8322.0">
        <ride from="E23" to="-E42" lines="taxi"/>
        <stop lane="-E42_0" duration="1140"/>
        <ride from="-E42" to="E23" lines="taxi"/>
    </person>
    <person id="t_37" depart="8410.0">
        <ride from="-E55" to="E22" lines="taxi"/>
        <stop lane="E22_0" duration="1140"/>
        <ride from="E22" to="-E55" lines="taxi"/>
    </person>
    <person id="t_38" depart="8428.0">
        <ride from="-E24" to="E22" lines="taxi"/>
        <stop lane="E22_0" duration="1140"/>
        <ride from="E22" to="-E24" lines="taxi"/>
    </person>
    <person id="t_39" depart="8487.0">
        <ride from="-E39" to="E22" lines="taxi"/>
        <stop lane="E22_0" duration="1140"/>
        <ride from="E22" to="-E39" lines="taxi"/>
    </person>
    <person id="t_40" depart="8509.0">
        <ride from="-E52" to="E22" lines="taxi"/>
        <stop lane="E22_0" duration="1140"/>
        <ride from="E22" to="-E52" lines="taxi"/>
    </person>
    <person id="t_41" depart="8609.0">
        <ride from="-E32" to="-E27" lines="taxi"/>
        <stop lane="-E27_0" duration="1140"/>
        <ride from="-E27" to="-E32" lines="taxi"/>
    </person>
    <person id="t_42" depart="8662.0">
        <ride from="-E42" to="E22" lines="taxi"/>
        <stop lane="E22_0" duration="1140"/>
        <ride from="E22" to="-E42" lines="taxi"/>
    </person>
    <person id="t_43" depart="8682.0">
        <ride from="-E42" to="E22" lines="taxi"/>
        <stop lane="E22_0" duration="1140"/>
        <ride from="E22" to="-E42" lines="taxi"/>
    </person>
    <person id="t_44" depart="8706.0">
        <ride from="-E3" to="-E54" lines="taxi"/>
        <stop lane="-E54_0" duration="1140"/>
        <ride from="-E54" to="-E3" lines="taxi"/>
    </person>
    <person id="t_45" depart="8707.0">
        <ride from="E5" to="E41" lines="taxi"/>
        <stop lane="E41_0" duration="1140"/>
        <ride from="E41" to="E5" lines="taxi"/>
    </person>
    <person id="t_46" depart="8711.0">
        <ride from="E5" to="E22" lines="taxi"/>
        <stop lane="E22_0" duration="1140"/>
        <ride from="E22" to="E5" lines="taxi"/>
    </person>
    <person id="t_47" depart="8714.0">
        <ride from="E30" to="-E54" lines="taxi"/>
        <stop lane="-E54_0" duration="1140"/>
        <ride from="-E54" to="E30" lines="taxi"/>
    </person>
    <person id="t_48" depart="8834.0">
        <ride from="-E42" to="E22" lines="taxi"/>
        <stop lane="E22_0" duration="1140"/>
        <ride from="E22" to="-E42" lines="taxi"/>
    </person>
    <person id="t_49" depart="8837.0">
        <ride from="-E53" to="E22" lines="taxi"/>
        <stop lane="E22_0" duration="1140"/>
        <ride from="E22" to="-E53" lines="taxi"/>
    </person>
    <person id="t_50" depart="9029.0">
        <ride from="-E41" to="E22" lines="taxi"/>
        <stop lane="E22_0" duration="1140"/>
        <ride from="E22" to="-E41" lines="taxi"/>
    </person>
    <person id="t_51" depart="9046.0">
        <ride from="-E52" to="E22" lines="taxi"/>
        <stop lane="E22_0" duration="1140"/>
        <ride from="E22" to="-E52" lines="taxi"/>
    </person>
    <person id="t_52" depart="9068.0">
        <ride from="-E50" to="E22" lines="taxi"/>
        <stop lane="E22_0" duration="1140"/>
        <ride from="E22" to="-E50" lines="taxi"/>
    </person>
    <person id="t_53" depart="9089.0">
        <ride from="E11" to="E22" lines="taxi"/>
        <stop lane="E22_0" duration="1140"/>
        <ride from="E22" to="E11" lines="taxi"/>
    </person>
    <person id="t_54" depart="9289.0">
        <ride from="-E4" to="E22" lines="taxi"/>
        <stop lane="E22_0" duration="1140"/>
        <ride from="E22" to="-E4" lines="taxi"/>
    </person>
    <person id="t_55" depart="9294.0">
        <ride from="-E57" to="E22" lines="taxi"/>
        <stop lane="E22_0" duration="1140"/>
        <ride from="E22" to="-E57" lines="taxi"/>
    </person>
    <person id="t_56" depart="9329.0">
        <ride from="-E19" to="E22" lines="taxi"/>
        <stop lane="E22_0" duration="1140"/>
        <ride from="E22" to="-E19" lines="taxi"/>
    </person>
    <person id="t_57" depart="9399.0">
        <ride from="-E0" to="E41" lines="taxi"/>
        <stop lane="E41_0" duration="1140"/>
        <ride from="E41" to="-E0" lines="taxi"/>
    </person>
    <person id="t_58" depart="9464.0">
        <ride from="E46" to="-E42" lines="taxi"/>
        <stop lane="-E42_0" duration="1140"/>
        <ride from="-E42" to="E46" lines="taxi"/>
    </person>
    <person id="t_59" depart="9476.0">
        <ride from="E9" to="E41" lines="taxi"/>
        <stop lane="E41_0" duration="1140"/>
        <ride from="E41" to="E9" lines="taxi"/>
    </person>
    <person id="t_60" depart="9483.0">
        <ride from="E28" to="-E42" lines="taxi"/>
        <stop lane="-E42_0" duration="1140"/>
        <ride from="-E42" to="E28" lines="taxi"/>
    </person>
    <person id="t_61" depart="9588.0">
        <ride from="-E56" to="E22" lines="taxi"/>
        <stop lane="E22_0" duration="1140"/>
        <ride from="E22" to="-E56" lines="taxi"/>
    </person>
    <person id="t_62" depart="9650.0">
        <ride from="E9" to="E41" lines="taxi"/>
        <stop lane="E41_0" duration="1140"/>
        <ride from="E41" to="E9" lines="taxi"/>
    </person>
    <person id="t_63" depart="9744.0">
        <ride from="-E62" to="E22" lines="taxi"/>
        <stop lane="E22_0" duration="1140"/>
        <ride from="E22" to="-E62" lines="taxi"/>
    </person>
    <person id="t_64" depart="9775.0">
        <ride from="E6" to="E22" lines="taxi"/>
        <stop lane="E22_0" duration="1140"/>
        <ride from="E22" to="E6" lines="taxi"/>
    </person>
    <person id="t_65" depart="9781.0">
        <ride from="-E24" to="E22" lines="taxi"/>
        <stop lane="E22_0" duration="1140"/>
        <ride from="E22" to="-E24" lines="taxi"/>
    </person>
    <person id="t_66" depart="9804.0">
        <ride from="-E46" to="E22" lines="taxi"/>
        <stop lane="E22_0" duration="1140"/>
        <ride from="E22" to="-E46" lines="taxi"/>
    </person>
    <person id="t_67" depart="9814.0">
        <ride from="-E3" to="-E54" lines="taxi"/>
        <stop lane="-E54_0" duration="1140"/>
        <ride from="-E54" to="-E3" lines="taxi"/>
    </person>
    <person id="t_68" depart="9844.0">
        <ride from="-E12" to="E22" lines="taxi"/>
        <stop lane="E22_0" duration="1140"/>
        <ride from="E22" to="-E12" lines="taxi"/>
    </person>
    <person id="t_69" depart="9886.0">
        <ride from="-E0" to="E41" lines="taxi"/>
        <stop lane="E41_0" duration="1140"/>
        <ride from="E41" to="-E0" lines="taxi"/>
    </person>
    <person id="t_70" depart="9905.0">
        <ride from="-E19" to="E41" lines="taxi"/>
        <stop lane="E41_0" duration="1140"/>
        <ride from="E41" to="-E19" lines="taxi"/>
    </person>
    <person id="t_71" depart="10010.0">
        <ride from="-E53" to="E22" lines="taxi"/>
        <stop lane="E22_0" duration="1140"/>
        <ride from="E22" to="-E53" lines="taxi"/>
    </person>
    <person id="t_72" depart="10022.0">
        <ride from="-E0" to="E22" lines="taxi"/>
        <stop lane="E22_0" duration="1140"/>
        <ride from="E22" to="-E0" lines="taxi"/>
    </person>
    <person id="t_73" depart="10081.0">
        <ride from="-E19" to="E22" lines="taxi"/>
        <stop lane="E22_0" duration="1140"/>
        <ride from="E22" to="-E19" lines="taxi"/>
    </person>
    <person id="t_74" depart="10145.0">
        <ride from="-E62" to="E22" lines="taxi"/>
        <stop lane="E22_0" duration="1140"/>
        <ride from="E22" to="-E62" lines="taxi"/>
    </person>
    <person id="t_75" depart="10149.0">
        <ride from="-E30" to="-E27" lines="taxi"/>
        <stop lane="-E27_0" duration="1140"/>
        <ride from="-E27" to="-E30" lines="taxi"/>
    </person>
    <person id="t_76" depart="10181.0">
        <ride from="-E17" to="E22" lines="taxi"/>
        <stop lane="E22_0" duration="1140"/>
        <ride from="E22" to="-E17" lines="taxi"/>
    </person>
    <person id="t_77" depart="10212.0">
        <ride from="-E46" to="E22" lines="taxi"/>
        <stop lane="E22_0" duration="1140"/>
        <ride from="E22" to="-E46" lines="taxi"/>
    </person>
    <person id="t_78" depart="10246.0">
        <ride from="-E62" to="E22" lines="taxi"/>
        <stop lane="E22_0" duration="1140"/>
        <ride from="E22" to="-E62" lines="taxi"/>
    </person>
    <person id="t_79" depart="10278.0">
        <ride from="-E30" to="-E27" lines="taxi"/>
        <stop lane="-E27_0" duration="1140"/>
        <ride from="-E27" to="-E30" lines="taxi"/>
    </person>
    <person id="t_80" depart="10322.0">
        <ride from="-E41" to="E22" lines="taxi"/>
        <stop lane="E22_0" duration="1140"/>
        <ride from="E22" to="-E41" lines="taxi"/>
    </person>
    <person id="t_81" depart="10480.0">
        <ride from="-E12" to="E41" lines="taxi"/>
        <stop lane="E41_0" duration="1140"/>
        <ride from="E41" to="-E12" lines="taxi"/>
    </person>
    <person id="t_82" depart="10574.0">
        <ride from="E43" to="-E54" lines="taxi"/>
        <stop lane="-E54_0" duration="1140"/>
        <ride from="-E54" to="E43" lines="taxi"/>
    </person>
    <person id="t_83" depart="10577.0">
        <ride from="E23" to="-E42" lines="taxi"/>
        <stop lane="-E42_0" duration="1140"/>
        <ride from="-E42" to="E23" lines="taxi"/>
    </person>
    <person id="t_84" depart="10627.0">
        <ride from="-E52" to="E22" lines="taxi"/>
        <stop lane="E22_0" duration="1140"/>
        <ride from="E22" to="-E52" lines="taxi"/>
    </person>
    <person id="t_85" depart="10645.0">
        <ride from="-E15" to="E22" lines="taxi"/>
        <stop lane="E22_0" duration="1140"/>
        <ride from="E22" to="-E15" lines="taxi"/>
    </person>
    <person id="t_86" depart="10656.0">
        <ride from="-E57" to="E22" lines="taxi"/>
        <stop lane="E22_0" duration="1140"/>
        <ride from="E22" to="-E57" lines="taxi"/>
    </person>
    <person id="t_87" depart="10711.0">
        <ride from="-E19" to="E22" lines="taxi"/>
        <stop lane="E22_0" duration="1140"/>
        <ride from="E22" to="-E19" lines="taxi"/>
    </person>
    <person id="t_88" depart="10738.0">
        <ride from="-E4" to="E22" lines="taxi"/>
        <stop lane="E22_0" duration="1140"/>
        <ride from="E22" to="-E4" lines="taxi"/>
    </person>
    <person id="t_89" depart="10798.0">
        <ride from="-E52" to="E22" lines="taxi"/>
        <stop lane="E22_0" duration="1140"/>
        <ride from="E22" to="-E52" lines="taxi"/>
    </person>
    <person id="t_90" depart="10801.0">
        <ride from="-E53" to="E22" lines="taxi"/>
        <stop lane="E22_0" duration="1140"/>
        <ride from="E22" to="-E53" lines="taxi"/>
    </person>
    <person id="t_91" depart="10834.0">
        <ride from="-E12" to="E41" lines="taxi"/>
        <stop lane="E41_0" duration="1140"/>
        <ride from="E41" to="-E12" lines="taxi"/>
    </person>
    <person id="t_92" depart="10834.0">
        <ride from="-E13" to="E22" lines="taxi"/>
        <stop lane="E22_0" duration="1140"/>
        <ride from="E22" to="-E13" lines="taxi"/>
    </person>
    <person id="t_93" depart="10865.0">
        <ride from="-E56" to="E22" lines="taxi"/>
        <stop lane="E22_0" duration="1140"/>
        <ride from="E22" to="-E56" lines="taxi"/>
    </person>
    <person id="t_94" depart="10871.0">
        <ride from="-E52" to="E22" lines="taxi"/>
        <stop lane="E22_0" duration="1140"/>
        <ride from="E22" to="-E52" lines="taxi"/>
    </person>
    <person id="t_95" depart="10888.0">
        <ride from="E5" to="E41" lines="taxi"/>
        <stop lane="E41_0" duration="1140"/>
        <ride from="E41" to="E5" lines="taxi"/>
    </person>
    <person id="t_96" depart="10906.0">
        <ride from="E16" to="E22" lines="taxi"/>
        <stop lane="E22_0" duration="1140"/>
        <ride from="E22" to="E16" lines="taxi"/>
    </person>
    <person id="t_97" depart="10926.0">
        <ride from="-E32" to="-E27" lines="taxi"/>
        <stop lane="-E27_0" duration="1140"/>
        <ride from="-E27" to="-E32" lines="taxi"/>
    </person>
    <person id="t_98" depart="11035.0">
        <ride from="-E30" to="-E27" lines="taxi"/>
        <stop lane="-E27_0" duration="1140"/>
        <ride from="-E27" to="-E30" lines="taxi"/>
    </person>
    <person id="t_99" depart="11103.0">
        <ride from="E5" to="E22" lines="taxi"/>
        <stop lane="E22_0" duration="1140"/>
        <ride from="E22" to="E5" lines="taxi"/>
    </person>
    <person id="t_100" depart="11107.0">
        <ride from="E16" to="E22" lines="taxi"/>
        <stop lane="E22_0" duration="1140"/>
        <ride from="E22" to="E16" lines="taxi"/>
    </person>
    <person id="t_101" depart="11151.0">
        <ride from="E22" to="-E42" lines="taxi"/>
        <stop lane="-E42_0" duration="1140"/>
        <ride from="-E42" to="E22" lines="taxi"/>
    </person>
    <person id="t_102" depart="11170.0">
        <ride from="-E17" to="E22" lines="taxi"/>
        <stop lane="E22_0" duration="1140"/>
        <ride from="E22" to="-E17" lines="taxi"/>
    </person>
    <person id="t_103" depart="11179.0">
        <ride from="-E24" to="E22" lines="taxi"/>
        <stop lane="E22_0" duration="1140"/>
        <ride from="E22" to="-E24" lines="taxi"/>
    </person>
    <person id="t_104" depart="11244.0">
        <ride from="E37" to="-E42" lines="taxi"/>
        <stop lane="-E42_0" duration="1140"/>
        <ride from="-E42" to="E37" lines="taxi"/>
    </person>
    <person id="t_105" depart="11322.0">
        <ride from="-E62" to="E41" lines="taxi"/>
        <stop lane="E41_0" duration="1140"/>
        <ride from="E41" to="-E62" lines="taxi"/>
    </person>
    <person id="t_106" depart="11439.0">
        <ride from="-E52" to="E22" lines="taxi"/>
        <stop lane="E22_0" duration="1140"/>
        <ride from="E22" to="-E52" lines="taxi"/>
    </person>
    <person id="t_107" depart="11444.0">
        <ride from="-E57" to="E22" lines="taxi"/>
        <stop lane="E22_0" duration="1140"/>
        <ride from="E22" to="-E57" lines="taxi"/>
    </person>
    <person id="t_108" depart="11503.0">
        <ride from="E5" to="E22" lines="taxi"/>
        <stop lane="E22_0" duration="1140"/>
        <ride from="E22" to="E5" lines="taxi"/>
    </person>
    <person id="t_109" depart="11506.0">
        <ride from="-E0" to="E41" lines="taxi"/>
        <stop lane="E41_0" duration="1140"/>
        <ride from="E41" to="-E0" lines="taxi"/>
    </person>
    <person id="t_110" depart="11543.0">
        <ride from="-E47" to="E22" lines="taxi"/>
        <stop lane="E22_0" duration="1140"/>
        <ride from="E22" to="-E47" lines="taxi"/>
    </person>
    <person id="t_111" depart="11651.0">
        <ride from="-E41" to="E22" lines="taxi"/>
        <stop lane="E22_0" duration="1140"/>
        <ride from="E22" to="-E41" lines="taxi"/>
    </person>
    <person id="t_112" depart="11652.0">
        <ride from="-E53" to="E22" lines="taxi"/>
        <stop lane="E22_0" duration="1140"/>
        <ride from="E22" to="-E53" lines="taxi"/>
    </person>
    <person id="t_113" depart="11652.0">
        <ride from="-E24" to="E22" lines="taxi"/>
        <stop lane="E22_0" duration="1140"/>
        <ride from="E22" to="-E24" lines="taxi"/>
    </person>
    <person id="t_114" depart="11678.0">
        <ride from="-E32" to="-E27" lines="taxi"/>
        <stop lane="-E27_0" duration="1140"/>
        <ride from="-E27" to="-E32" lines="taxi"/>
    </person>
    <person id="t_115" depart="11768.0">
        <ride from="-E52" to="E22" lines="taxi"/>
        <stop lane="E22_0" duration="1140"/>
        <ride from="E22" to="-E52" lines="taxi"/>
    </person>
    <person id="t_116" depart="11798.0">
        <ride from="E6" to="E22" lines="taxi"/>
        <stop lane="E22_0" duration="1140"/>
        <ride from="E22" to="E6" lines="taxi"/>
    </person>
    <person id="t_117" depart="11817.0">
        <ride from="-E53" to="E22" lines="taxi"/>
        <stop lane="E22_0" duration="1140"/>
        <ride from="E22" to="-E53" lines="taxi"/>
    </person>
    <person id="t_118" depart="11845.0">
        <ride from="-E4" to="E22" lines="taxi"/>
        <stop lane="E22_0" duration="1140"/>
        <ride from="E22" to="-E4" lines="taxi"/>
    </person>
    <person id="t_119" depart="11865.0">
        <ride from="-E4" to="E22" lines="taxi"/>
        <stop lane="E22_0" duration="1140"/>
        <ride from="E22" to="-E4" lines="taxi"/>
    </person>
    <person id="t_120" depart="11869.0">
        <ride from="-E64" to="E22" lines="taxi"/>
        <stop lane="E22_0" duration="1140"/>
        <ride from="E22" to="-E64" lines="taxi"/>
    </person>
    <person id="t_121" depart="11895.0">
        <ride from="-E41" to="E22" lines="taxi"/>
        <stop lane="E22_0" duration="1140"/>
        <ride from="E22" to="-E41" lines="taxi"/>
    </person>
    <person id="t_122" depart="11946.0">
        <ride from="-E53" to="E22" lines="taxi"/>
        <stop lane="E22_0" duration="1140"/>
        <ride from="E22" to="-E53" lines="taxi"/>
    </person>
    <person id="t_123" depart="11948.0">
        <ride from="E30" to="-E54" lines="taxi"/>
        <stop lane="-E54_0" duration="1140"/>
        <ride from="-E54" to="E30" lines="taxi"/>
    </person>
    <person id="t_124" depart="11964.0">
        <ride from="-E0" to="E41" lines="taxi"/>
        <stop lane="E41_0" duration="1140"/>
        <ride from="E41" to="-E0" lines="taxi"/>
    </person>
    <person id="t_125" depart="11966.0">
        <ride from="-E52" to="-E54" lines="taxi"/>
        <stop lane="-E54_0" duration="1140"/>
        <ride from="-E54" to="-E52" lines="taxi"/>
    </person>
    <person id="t_126" depart="11971.0">
        <ride from="-E0" to="E22" lines="taxi"/>
        <stop lane="E22_0" duration="1140"/>
        <ride from="E22" to="-E0" lines="taxi"/>
    </person>
    <person id="t_127" depart="11978.0">
        <ride from="-E0" to="E41" lines="taxi"/>
        <stop lane="E41_0" duration="1140"/>
        <ride from="E41" to="-E0" lines="taxi"/>
    </person>
    <person id="t_128" depart="11989.0">
        <ride from="-E17" to="E41" lines="taxi"/>
        <stop lane="E41_0" duration="1140"/>
        <ride from="E41" to="-E17" lines="taxi"/>
    </person>
    <person id="t_129" depart="12053.0">
        <ride from="-E52" to="E22" lines="taxi"/>
        <stop lane="E22_0" duration="1140"/>
        <ride from="E22" to="-E52" lines="taxi"/>
    </person>
    <person id="t_130" depart="12080.0">
        <ride from="-E42" to="E22" lines="taxi"/>
        <stop lane="E22_0" duration="1140"/>
        <ride from="E22" to="-E42" lines="taxi"/>
    </person>
    <person id="t_131" depart="12114.0">
        <ride from="-E42" to="E22" lines="taxi"/>
        <stop lane="E22_0" duration="1140"/>
        <ride from="E22" to="-E42" lines="taxi"/>
    </person>
    <person id="t_132" depart="12116.0">
        <ride from="-E19" to="E41" lines="taxi"/>
        <stop lane="E41_0" duration="1140"/>
        <ride from="E41" to="-E19" lines="taxi"/>
    </person>
    <person id="t_133" depart="12138.0">
        <ride from="-E50" to="E22" lines="taxi"/>
        <stop lane="E22_0" duration="1140"/>
        <ride from="E22" to="-E50" lines="taxi"/>
    </person>
    <person id="t_134" depart="12140.0">
        <ride from="-E64" to="E22" lines="taxi"/>
        <stop lane="E22_0" duration="1140"/>
        <ride from="E22" to="-E64" lines="taxi"/>
    </person>
    <person id="t_135" depart="12151.0">
        <ride from="E11" to="E22" lines="taxi"/>
        <stop lane="E22_0" duration="1140"/>
        <ride from="E22" to="E11" lines="taxi"/>
    </person>
    <person id="t_136" depart="12216.0">
        <ride from="E6" to="E41" lines="taxi"/>
        <stop lane="E41_0" duration="1140"/>
        <ride from="E41" to="E6" lines="taxi"/>
    </person>
    <person id="t_137" depart="12223.0">
        <ride from="-E41" to="E22" lines="taxi"/>
        <stop lane="E22_0" duration="1140"/>
        <ride from="E22" to="-E41" lines="taxi"/>
    </person>
    <person id="t_138" depart="12228.0">
        <ride from="-E3" to="-E54" lines="taxi"/>
        <stop lane="-E54_0" duration="1140"/>
        <ride from="-E54" to="-E3" lines="taxi"/>
    </person>
    <person id="t_139" depart="12241.0">
        <ride from="-E62" to="E41" lines="taxi"/>
        <stop lane="E41_0" duration="1140"/>
        <ride from="E41" to="-E62" lines="taxi"/>
    </person>
    <person id="t_140" depart="12438.0">
        <ride from="-E12" to="E22" lines="taxi"/>
        <stop lane="E22_0" duration="1140"/>
        <ride from="E22" to="-E12" lines="taxi"/>
    </person>
    <person id="t_141" depart="12488.0">
        <ride from="-E62" to="E22" lines="taxi"/>
        <stop lane="E22_0" duration="1140"/>
        <ride from="E22" to="-E62" lines="taxi"/>
    </person>
    <person id="t_142" depart="12568.0">
        <ride from="-E53" to="E22" lines="taxi"/>
        <stop lane="E22_0" duration="1140"/>
        <ride from="E22" to="-E53" lines="taxi"/>
    </person>
    <person id="t_143" depart="12581.0">
        <ride from="-E52" to="E22" lines="taxi"/>
        <stop lane="E22_0" duration="1140"/>
        <ride from="E22" to="-E52" lines="taxi"/>
    </person>
    <person id="t_144" depart="12620.0">
        <ride from="E5" to="E22" lines="taxi"/>
        <stop lane="E22_0" duration="1140"/>
        <ride from="E22" to="E5" lines="taxi"/>
    </person>
    <person id="t_145" depart="12674.0">
        <ride from="E10" to="E22" lines="taxi"/>
        <stop lane="E22_0" duration="1140"/>
        <ride from="E22" to="E10" lines="taxi"/>
    </person>
    <person id="t_146" depart="12683.0">
        <ride from="-E32" to="-E27" lines="taxi"/>
        <stop lane="-E27_0" duration="1140"/>
        <ride from="-E27" to="-E32" lines="taxi"/>
    </person>
    <person id="t_147" depart="12728.0">
        <ride from="E24" to="-E42" lines="taxi"/>
        <stop lane="-E42_0" duration="1140"/>
        <ride from="-E42" to="E24" lines="taxi"/>
    </person>
    <person id="t_148" depart="12734.0">
        <ride from="E43" to="-E54" lines="taxi"/>
        <stop lane="-E54_0" duration="1140"/>
        <ride from="-E54" to="E43" lines="taxi"/>
    </person>
    <person id="t_149" depart="12781.0">
        <ride from="-E62" to="E22" lines="taxi"/>
        <stop lane="E22_0" duration="1140"/>
        <ride from="E22" to="-E62" lines="taxi"/>
    </person>
    <person id="t_150" depart="12790.0">