<?xml version="1.0" encoding="UTF-8"?>

<!-- generated on 2026-01-17T21:12:03.829544+01:00 by Eclipse SUMO netedit v1_25_0+0150-04664dcec11
-->

<routes xmlns:xsi="http://www.w3.org/2001/XMLSchema-instance" xsi:noNamespaceSchemaLocation="http://sumo.dlr.de/xsd/routes_file.xsd">
    <!-- VTypes -->
    <vType id="Arts"/>
    <vType id="Bus_143_Aubing" length="12.00" maxSpeed="80.00" vClass="bus"/>
    <vType id="Bus_143_Freiham" length="12.00" maxSpeed="80.00" vClass="bus"/>
    <vType id="Bus_156_Aubing" vClass="bus"/>
    <vType id="Bus_156_Freiham" length="12.00" maxSpeed="80.00" vClass="bus"/>
    <vType id="Bus_157_Aubing" length="12.00" maxSpeed="80.00" vClass="bus"/>
    <vType id="Bus_157_Freiham" length="12.00" maxSpeed="80.00" vClass="bus" color="0,128,128"/>
    <vType id="Bus_57_Aubing" length="12.00" maxSpeed="80.00" vClass="bus"/>
    <vType id="Bus_57_Freiham" length="12.00" maxSpeed="80.00" vClass="bus"/>
    <vType id="DEFAULT_RAILTYPE" length="25.00" maxSpeed="80.00" vClass="bus"/>
    <!-- Vehicles, persons and containers (sorted by depart) -->
    <trip id="b_0" type="Bus_156_Freiham" depart="0.00" from="E18" to="E67" via="E25 E36 E37 E30 E32 E39 E43 E44 E53 E64 E62 E63 E19 E20 E65 E70 E71">
        <stop busStop="bs_0" duration="20.00" until="21.00"/>
        <stop busStop="bs_1" duration="20.00" until="105.00"/>
        <stop busStop="bs_2" duration="20.00" until="155.00"/>
        <stop busStop="bs_3" duration="20.00" until="202.00"/>
        <stop busStop="bs_4" duration="20.00" until="261.00"/>
        <stop busStop="bs_5" duration="20.00" until="311.00"/>
        <stop busStop="bs_6" duration="20.00" until="358.00"/>
        <stop busStop="bs_7" duration="20.00" until="406.00"/>
        <stop busStop="bs_8" duration="20.00" until="462.00"/>
        <stop busStop="bs_9" duration="20.00" until="513.00"/>
    </trip>
    <trip id="b_1" type="Bus_157_Aubing" depart="0.00" from="-E71" to="-E8" via="-E70 -E65 -E16 -E15 -E0 E10 E11 E6 -E52 -E50 E44 -E42 -E41 -E24 -E23 -E22 -E25 -E18">
        <stop busStop="bs_39" duration="20.00" until="35.00"/>
        <stop busStop="bs_38" duration="20.00" until="90.00"/>
        <stop busStop="bs_36" duration="20.00" until="138.00"/>
        <stop busStop="bs_32" duration="20.00" until="198.00"/>
        <stop busStop="bs_34" duration="20.00" until="246.00"/>
        <stop busStop="bs_31" duration="20.00" until="292.00"/>
        <stop busStop="bs_4" duration="20.00" until="343.00"/>
        <stop busStop="bs_28" duration="20.00" until="393.00"/>
        <stop busStop="bs_24" duration="20.00" until="445.00"/>
        <stop busStop="bs_42" duration="20.00" until="504.00"/>
    </trip>
    <trip id="b_2" type="Bus_157_Freiham" depart="180.00" from="E8" to="E71" via="E18 E25 E22 E23 E24 E41 E42 -E49 E50 E52 -E6 -E11 -E10 E0 E15 E16 E65 E70">
        <stop busStop="bs_15" duration="20.00" until="201.00"/>
        <stop busStop="bs_17" duration="20.00" until="261.00"/>
        <stop busStop="bs_21" duration="20.00" until="314.00"/>
        <stop busStop="bs_23" duration="20.00" until="363.00"/>
        <stop busStop="bs_14" duration="20.00" until="418.00"/>
        <stop busStop="bs_13" duration="20.00" until="466.00"/>
        <stop busStop="bs_12" duration="20.00" until="512.00"/>
        <stop busStop="bs_11" duration="20.00" until="573.00"/>
        <stop busStop="bs_7" duration="20.00" until="622.00"/>
        <stop busStop="bs_8" duration="20.00" until="678.00"/>
    </trip>
    <trip id="b_3" type="Bus_156_Aubing" depart="300.00" from="-E67" to="-E18" via="-E71 -E70 -E65 -E20 -E19 -E63 -E62 -E64 -E53 -E49 -E43 -E39 -E32 -E30 -E37 -E36 -E25">
        <stop busStop="bs_40" duration="20.00" until="344.00"/>
        <stop busStop="bs_39" duration="20.00" until="395.00"/>
        <stop busStop="bs_38" duration="20.00" until="450.00"/>
        <stop busStop="bs_35" duration="20.00" until="497.00"/>
        <stop busStop="bs_33" duration="20.00" until="542.00"/>
        <stop busStop="bs_29" duration="20.00" until="594.00"/>
        <stop busStop="bs_44" duration="20.00" until="657.00"/>
        <stop busStop="bs_25" duration="20.00" until="704.00"/>
        <stop busStop="bs_26" duration="20.00" until="754.00"/>
        <stop busStop="bs_41" duration="20.00" until="837.00"/>
    </trip>
    <trip id="b_4" type="Bus_143_Aubing" depart="360.00" from="-E46" to="-E7" via="-E28 -E27 E29 -E37 -E36 -E25 -E18 -E8">
        <stop busStop="bs_22" duration="20.00" until="381.00"/>
        <stop busStop="bs_27" duration="20.00" until="463.00"/>
        <stop busStop="bs_26" duration="20.00" until="520.00"/>
        <stop busStop="bs_43" duration="20.00" until="619.00"/>
    </trip>
    <trip id="b_5" type="Bus_57_Aubing" depart="360.00" from="-E17" to="-E2" via="-E63 -E62 -E64 -E53 -E42 -E41 -E24 -E23 -E22 -E25 -E18 -E8 -E7">
        <stop busStop="bs_37" duration="20.00" until="391.00"/>
        <stop busStop="bs_35" duration="20.00" until="442.00"/>
        <stop busStop="bs_33" duration="20.00" until="487.00"/>
        <stop busStop="bs_30" duration="20.00" until="538.00"/>
        <stop busStop="bs_28" duration="20.00" until="585.00"/>
        <stop busStop="bs_24" duration="20.00" until="637.00"/>
        <stop busStop="bs_45" duration="20.00" until="716.00"/>
    </trip>
    <trip id="b_6" type="Bus_143_Freiham" depart="540.00" from="E7" to="E46" via="E8 E18 E25 E36 E37 -E29 E27 E28">
        <stop busStop="bs_1" duration="20.00" until="639.00"/>
        <stop busStop="bs_19" duration="20.00" until="694.00"/>
        <stop busStop="bs_20" duration="20.00" until="774.00"/>
    </trip>
    <trip id="b_7" type="Bus_57_Freiham" depart="540.00" from="E2" to="E17" via="E7 E8 E18 E25 E22 E23 E24 E41 E42 E53 E64 E62 E63">
        <stop busStop="bs_18" duration="20.00" until="561.00"/>
        <stop busStop="bs_17" duration="20.00" until="633.00"/>
        <stop busStop="bs_21" duration="20.00" until="685.00"/>
        <stop busStop="bs_23" duration="20.00" until="733.00"/>
        <stop busStop="bs_5" duration="20.00" until="784.00"/>
        <stop busStop="bs_6" duration="20.00" until="830.00"/>
        <stop busStop="bs_10" duration="20.00" until="878.00"/>
    </trip>
    <trip id="b_8" type="Bus_156_Freiham" depart="600.00" from="E18" to="E67" via="E25 E36 E37 E30 E32 E39 E43 E44 E53 E64 E62 E63 E19 E20 E65 E70 E71">
        <stop busStop="bs_0" duration="20.00" until="621.00"/>
        <stop busStop="bs_1" duration="20.00" until="705.00"/>
        <stop busStop="bs_2" duration="20.00" until="755.00"/>
        <stop busStop="bs_3" duration="20.00" until="802.00"/>
        <stop busStop="bs_4" duration="20.00" until="861.00"/>
        <stop busStop="bs_5" duration="20.00" until="911.00"/>
        <stop busStop="bs_6" duration="20.00" until="958.00"/>
        <stop busStop="bs_7" duration="20.00" until="1006.00"/>
        <stop busStop="bs_8" duration="20.00" until="1062.00"/>
        <stop busStop="bs_9" duration="20.00" until="1113.00"/>
    </trip>
    <trip id="b_9" type="Bus_157_Aubing" depart="600.00" from="-E71" to="-E8" via="-E70 -E65 -E16 -E15 -E0 E10 E11 E6 -E52 -E50 E44 -E42 -E41 -E24 -E23 -E22 -E25 -E18">
        <stop busStop="bs_39" duration="20.00" until="635.00"/>
        <stop busStop="bs_38" duration="20.00" until="690.00"/>
        <stop busStop="bs_36" duration="20.00" until="738.00"/>
        <stop busStop="bs_32" duration="20.00" until="798.00"/>
        <stop busStop="bs_34" duration="20.00" until="846.00"/>
        <stop busStop="bs_31" duration="20.00" until="892.00"/>
        <stop busStop="bs_4" duration="20.00" until="943.00"/>
        <stop busStop="bs_28" duration="20.00" until="993.00"/>
        <stop busStop="bs_24" duration="20.00" until="1045.00"/>
        <stop busStop="bs_42" duration="20.00" until="1104.00"/>
    </trip>
    <trip id="b_10" type="Bus_157_Freiham" depart="780.00" from="E8" to="E71" via="E18 E25 E22 E23 E24 E41 E42 -E49 E50 E52 -E6 -E11 -E10 E0 E15 E16 E65 E70">
        <stop busStop="bs_15" duration="20.00" until="801.00"/>
        <stop busStop="bs_17" duration="20.00" until="861.00"/>
        <stop busStop="bs_21" duration="20.00" until="914.00"/>
        <stop busStop="bs_23" duration="20.00" until="963.00"/>
        <stop busStop="bs_14" duration="20.00" until="1018.00"/>
        <stop busStop="bs_13" duration="20.00" until="1066.00"/>
        <stop busStop="bs_12" duration="20.00" until="1112.00"/>
        <stop busStop="bs_11" duration="20.00" until="1173.00"/>
        <stop busStop="bs_7" duration="20.00" until="1222.00"/>
        <stop busStop="bs_8" duration="20.00" until="1278.00"/>
    </trip>
    <trip id="b_11" type="Bus_57_Aubing" depart="780.00" from="-E17" to="-E2" via="-E63 -E62 -E64 -E53 -E42 -E41 -E24 -E23 -E22 -E25 -E18 -E8 -E7">
        <stop busStop="bs_37" duration="20.00" until="811.00"/>
        <stop busStop="bs_35" duration="20.00" until="862.00"/>
        <stop busStop="bs_33" duration="20.00" until="907.00"/>
        <stop busStop="bs_30" duration="20.00" until="958.00"/>
        <stop busStop="bs_28" duration="20.00" until="1005.00"/>
        <stop busStop="bs_24" duration="20.00" until="1057.00"/>
        <stop busStop="bs_45" duration="20.00" until="1136.00"/>
    </trip>
    <trip id="b_12" type="Bus_156_Aubing" depart="900.00" from="-E67" to="-E18" via="-E71 -E70 -E65 -E20 -E19 -E63 -E62 -E64 -E53 -E49 -E43 -E39 -E32 -E30 -E37 -E36 -E25">
        <stop busStop="bs_40" duration="20.00" until="944.00"/>
        <stop busStop="bs_39" duration="20.00" until="995.00"/>
        <stop busStop="bs_38" duration="20.00" until="1050.00"/>
        <stop busStop="bs_35" duration="20.00" until="1097.00"/>
        <stop busStop="bs_33" duration="20.00" until="1142.00"/>
        <stop busStop="bs_29" duration="20.00" until="1194.00"/>
        <stop busStop="bs_44" duration="20.00" until="1257.00"/>
        <stop busStop="bs_25" duration="20.00" until="1304.00"/>
        <stop busStop="bs_26" duration="20.00" until="1354.00"/>
        <stop busStop="bs_41" duration="20.00" until="1437.00"/>
    </trip>
    <trip id="b_13" type="Bus_143_Aubing" depart="960.00" from="-E46" to="-E7" via="-E28 -E27 E29 -E37 -E36 -E25 -E18 -E8">
        <stop busStop="bs_22" duration="20.00" until="981.00"/>
        <stop busStop="bs_27" duration="20.00" until="1063.00"/>
        <stop busStop="bs_26" duration="20.00" until="1120.00"/>
        <stop busStop="bs_43" duration="20.00" until="1219.00"/>
    </trip>
    <trip id="b_14" type="Bus_57_Freiham" depart="960.00" from="E2" to="E17" via="E7 E8 E18 E25 E22 E23 E24 E41 E42 E53 E64 E62 E63">
        <stop busStop="bs_18" duration="20.00" until="981.00"/>
        <stop busStop="bs_17" duration="20.00" until="1053.00"/>
        <stop busStop="bs_21" duration="20.00" until="1105.00"/>
        <stop busStop="bs_23" duration="20.00" until="1153.00"/>
        <stop busStop="bs_5" duration="20.00" until="1204.00"/>
        <stop busStop="bs_6" duration="20.00" until="1250.00"/>
        <stop busStop="bs_10" duration="20.00" until="1298.00"/>
    </trip>
    <trip id="b_15" type="Bus_143_Freiham" depart="1140.00" from="E7" to="E46" via="E8 E18 E25 E36 E37 -E29 E27 E28">
        <stop busStop="bs_1" duration="20.00" until="1239.00"/>
        <stop busStop="bs_19" duration="20.00" until="1294.00"/>
        <stop busStop="bs_20" duration="20.00" until="1374.00"/>
    </trip>
    <trip id="b_16" type="Bus_156_Freiham" depart="1200.00" from="E18" to="E67" via="E25 E36 E37 E30 E32 E39 E43 E44 E53 E64 E62 E63 E19 E20 E65 E70 E71">
        <stop busStop="bs_0" duration="20.00" until="1221.00"/>
        <stop busStop="bs_1" duration="20.00" until="1305.00"/>
        <stop busStop="bs_2" duration="20.00" until="1355.00"/>
        <stop busStop="bs_3" duration="20.00" until="1402.00"/>
        <stop busStop="bs_4" duration="20.00" until="1461.00"/>
        <stop busStop="bs_5" duration="20.00" until="1511.00"/>
        <stop busStop="bs_6" duration="20.00" until="1558.00"/>
        <stop busStop="bs_7" duration="20.00" until="1606.00"/>
        <stop busStop="bs_8" duration="20.00" until="1662.00"/>
        <stop busStop="bs_9" duration="20.00" until="1713.00"/>
    </trip>
    <trip id="b_17" type="Bus_157_Aubing" depart="1200.00" from="-E71" to="-E8" via="-E70 -E65 -E16 -E15 -E0 E10 E11 E6 -E52 -E50 E44 -E42 -E41 -E24 -E23 -E22 -E25 -E18">
        <stop busStop="bs_39" duration="20.00" until="1235.00"/>
        <stop busStop="bs_38" duration="20.00" until="1290.00"/>
        <stop busStop="bs_36" duration="20.00" until="1338.00"/>
        <stop busStop="bs_32" duration="20.00" until="1398.00"/>
        <stop busStop="bs_34" duration="20.00" until="1446.00"/>
        <stop busStop="bs_31" duration="20.00" until="1492.00"/>
        <stop busStop="bs_4" duration="20.00" until="1543.00"/>
        <stop busStop="bs_28" duration="20.00" until="1593.00"/>
        <stop busStop="bs_24" duration="20.00" until="1645.00"/>
        <stop busStop="bs_42" duration="20.00" until="1704.00"/>
    </trip>
    <trip id="b_18" type="Bus_57_Aubing" depart="1200.00" from="-E17" to="-E2" via="-E63 -E62 -E64 -E53 -E42 -E41 -E24 -E23 -E22 -E25 -E18 -E8 -E7">
        <stop busStop="bs_37" duration="20.00" until="1231.00"/>
        <stop busStop="bs_35" duration="20.00" until="1282.00"/>
        <stop busStop="bs_33" duration="20.00" until="1327.00"/>
        <stop busStop="bs_30" duration="20.00" until="1378.00"/>
        <stop busStop="bs_28" duration="20.00" until="1425.00"/>
        <stop busStop="bs_24" duration="20.00" until="1477.00"/>
        <stop busStop="bs_45" duration="20.00" until="1556.00"/>
    </trip>
    <trip id="b_19" type="Bus_157_Freiham" depart="1380.00" from="E8" to="E71" via="E18 E25 E22 E23 E24 E41 E42 -E49 E50 E52 -E6 -E11 -E10 E0 E15 E16 E65 E70">
        <stop busStop="bs_15" duration="20.00" until="1401.00"/>
        <stop busStop="bs_17" duration="20.00" until="1461.00"/>
        <stop busStop="bs_21" duration="20.00" until="1514.00"/>
        <stop busStop="bs_23" duration="20.00" until="1563.00"/>
        <stop busStop="bs_14" duration="20.00" until="1618.00"/>
        <stop busStop="bs_13" duration="20.00" until="1666.00"/>
        <stop busStop="bs_12" duration="20.00" until="1712.00"/>
        <stop busStop="bs_11" duration="20.00" until="1773.00"/>
        <stop busStop="bs_7" duration="20.00" until="1822.00"/>
        <stop busStop="bs_8" duration="20.00" until="1878.00"/>
    </trip>
    <trip id="b_20" type="Bus_57_Freiham" depart="1380.00" from="E2" to="E17" via="E7 E8 E18 E25 E22 E23 E24 E41 E42 E53 E64 E62 E63">
        <stop busStop="bs_18" duration="20.00" until="1401.00"/>
        <stop busStop="bs_17" duration="20.00" until="1473.00"/>
        <stop busStop="bs_21" duration="20.00" until="1525.00"/>
        <stop busStop="bs_23" duration="20.00" until="1573.00"/>
        <stop busStop="bs_5" duration="20.00" until="1624.00"/>
        <stop busStop="bs_6" duration="20.00" until="1670.00"/>
        <stop busStop="bs_10" duration="20.00" until="1718.00"/>
    </trip>
    <trip id="b_21" type="Bus_156_Aubing" depart="1500.00" from="-E67" to="-E18" via="-E71 -E70 -E65 -E20 -E19 -E63 -E62 -E64 -E53 -E49 -E43 -E39 -E32 -E30 -E37 -E36 -E25">
        <stop busStop="bs_40" duration="20.00" until="1544.00"/>
        <stop busStop="bs_39" duration="20.00" until="1595.00"/>
        <stop busStop="bs_38" duration="20.00" until="1650.00"/>
        <stop busStop="bs_35" duration="20.00" until="1697.00"/>
        <stop busStop="bs_33" duration="20.00" until="1742.00"/>
        <stop busStop="bs_29" duration="20.00" until="1794.00"/>
        <stop busStop="bs_44" duration="20.00" until="1857.00"/>
        <stop busStop="bs_25" duration="20.00" until="1904.00"/>
        <stop busStop="bs_26" duration="20.00" until="1954.00"/>
        <stop busStop="bs_41" duration="20.00" until="2037.00"/>
    </trip>
    <trip id="b_22" type="Bus_143_Aubing" depart="1560.00" from="-E46" to="-E7" via="-E28 -E27 E29 -E37 -E36 -E25 -E18 -E8">
        <stop busStop="bs_22" duration="20.00" until="1581.00"/>
        <stop busStop="bs_27" duration="20.00" until="1663.00"/>
        <stop busStop="bs_26" duration="20.00" until="1720.00"/>
        <stop busStop="bs_43" duration="20.00" until="1819.00"/>
    </trip>
    <trip id="b_23" type="Bus_57_Aubing" depart="1620.00" from="-E17" to="-E2" via="-E63 -E62 -E64 -E53 -E42 -E41 -E24 -E23 -E22 -E25 -E18 -E8 -E7">
        <stop busStop="bs_37" duration="20.00" until="1651.00"/>
        <stop busStop="bs_35" duration="20.00" until="1702.00"/>
        <stop busStop="bs_33" duration="20.00" until="1747.00"/>
        <stop busStop="bs_30" duration="20.00" until="1798.00"/>
        <stop busStop="bs_28" duration="20.00" until="1845.00"/>
        <stop busStop="bs_24" duration="20.00" until="1897.00"/>
        <stop busStop="bs_45" duration="20.00" until="1976.00"/>
    </trip>
    <trip id="b_24" type="Bus_143_Freiham" depart="1740.00" from="E7" to="E46" via="E8 E18 E25 E36 E37 -E29 E27 E28">
        <stop busStop="bs_1" duration="20.00" until="1839.00"/>
        <stop busStop="bs_19" duration="20.00" until="1894.00"/>
        <stop busStop="bs_20" duration="20.00" until="1974.00"/>
    </trip>
    <trip id="b_25" type="Bus_156_Freiham" depart="1800.00" from="E18" to="E67" via="E25 E36 E37 E30 E32 E39 E43 E44 E53 E64 E62 E63 E19 E20 E65 E70 E71">
        <stop busStop="bs_0" duration="20.00" until="1821.00"/>
        <stop busStop="bs_1" duration="20.00" until="1905.00"/>
        <stop busStop="bs_2" duration="20.00" until="1955.00"/>
        <stop busStop="bs_3" duration="20.00" until="2002.00"/>
        <stop busStop="bs_4" duration="20.00" until="2061.00"/>
        <stop busStop="bs_5" duration="20.00" until="2111.00"/>
        <stop busStop="bs_6" duration="20.00" until="2158.00"/>
        <stop busStop="bs_7" duration="20.00" until="2206.00"/>
        <stop busStop="bs_8" duration="20.00" until="2262.00"/>
        <stop busStop="bs_9" duration="20.00" until="2313.00"/>
    </trip>
    <trip id="b_26" type="Bus_157_Aubing" depart="1800.00" from="-E71" to="-E8" via="-E70 -E65 -E16 -E15 -E0 E10 E11 E6 -E52 -E50 E44 -E42 -E41 -E24 -E23 -E22 -E25 -E18">
        <stop busStop="bs_39" duration="20.00" until="1835.00"/>
        <stop busStop="bs_38" duration="20.00" until="1890.00"/>
        <stop busStop="bs_36" duration="20.00" until="1938.00"/>
        <stop busStop="bs_32" duration="20.00" until="1998.00"/>
        <stop busStop="bs_34" duration="20.00" until="2046.00"/>
        <stop busStop="bs_31" duration="20.00" until="2092.00"/>
        <stop busStop="bs_4" duration="20.00" until="2143.00"/>
        <stop busStop="bs_28" duration="20.00" until="2193.00"/>
        <stop busStop="bs_24" duration="20.00" until="2245.00"/>
        <stop busStop="bs_42" duration="20.00" until="2304.00"/>
    </trip>
    <trip id="b_27" type="Bus_57_Freiham" depart="1800.00" from="E2" to="E17" via="E7 E8 E18 E25 E22 E23 E24 E41 E42 E53 E64 E62 E63">
        <stop busStop="bs_18" duration="20.00" until="1821.00"/>
        <stop busStop="bs_17" duration="20.00" until="1893.00"/>
        <stop busStop="bs_21" duration="20.00" until="1945.00"/>
        <stop busStop="bs_23" duration="20.00" until="1993.00"/>
        <stop busStop="bs_5" duration="20.00" until="2044.00"/>
        <stop busStop="bs_6" duration="20.00" until="2090.00"/>
        <stop busStop="bs_10" duration="20.00" until="2138.00"/>
    </trip>
    <trip id="b_28" type="Bus_157_Freiham" depart="1980.00" from="E8" to="E71" via="E18 E25 E22 E23 E24 E41 E42 -E49 E50 E52 -E6 -E11 -E10 E0 E15 E16 E65 E70">
        <stop busStop="bs_15" duration="20.00" until="2001.00"/>
        <stop busStop="bs_17" duration="20.00" until="2061.00"/>
        <stop busStop="bs_21" duration="20.00" until="2114.00"/>
        <stop busStop="bs_23" duration="20.00" until="2163.00"/>
        <stop busStop="bs_14" duration="20.00" until="2218.00"/>
        <stop busStop="bs_13" duration="20.00" until="2266.00"/>
        <stop busStop="bs_12" duration="20.00" until="2312.00"/>
        <stop busStop="bs_11" duration="20.00" until="2373.00"/>
        <stop busStop="bs_7" duration="20.00" until="2422.00"/>
        <stop busStop="bs_8" duration="20.00" until="2478.00"/>
    </trip>
    <trip id="b_29" type="Bus_57_Aubing" depart="2040.00" from="-E17" to="-E2" via="-E63 -E62 -E64 -E53 -E42 -E41 -E24 -E23 -E22 -E25 -E18 -E8 -E7">
        <stop busStop="bs_37" duration="20.00" until="2071.00"/>
        <stop busStop="bs_35" duration="20.00" until="2122.00"/>
        <stop busStop="bs_33" duration="20.00" until="2167.00"/>
        <stop busStop="bs_30" duration="20.00" until="2218.00"/>
        <stop busStop="bs_28" duration="20.00" until="2265.00"/>
        <stop busStop="bs_24" duration="20.00" until="2317.00"/>
        <stop busStop="bs_45" duration="20.00" until="2396.00"/>
    </trip>
    <trip id="b_30" type="Bus_156_Aubing" depart="2100.00" from="-E67" to="-E18" via="-E71 -E70 -E65 -E20 -E19 -E63 -E62 -E64 -E53 -E49 -E43 -E39 -E32 -E30 -E37 -E36 -E25">
        <stop busStop="bs_40" duration="20.00" until="2144.00"/>
        <stop busStop="bs_39" duration="20.00" until="2195.00"/>
        <stop busStop="bs_38" duration="20.00" until="2250.00"/>
        <stop busStop="bs_35" duration="20.00" until="2297.00"/>
        <stop busStop="bs_33" duration="20.00" until="2342.00"/>
        <stop busStop="bs_29" duration="20.00" until="2394.00"/>
        <stop busStop="bs_44" duration="20.00" until="2457.00"/>
        <stop busStop="bs_25" duration="20.00" until="2504.00"/>
        <stop busStop="bs_26" duration="20.00" until="2554.00"/>
        <stop busStop="bs_41" duration="20.00" until="2637.00"/>
    </trip>
    <trip id="b_31" type="Bus_143_Aubing" depart="2160.00" from="-E46" to="-E7" via="-E28 -E27 E29 -E37 -E36 -E25 -E18 -E8">
        <stop busStop="bs_22" duration="20.00" until="2181.00"/>
        <stop busStop="bs_27" duration="20.00" until="2263.00"/>
        <stop busStop="bs_26" duration="20.00" until="2320.00"/>
        <stop busStop="bs_43" duration="20.00" until="2419.00"/>
    </trip>
    <trip id="b_32" type="Bus_57_Freiham" depart="2220.00" from="E2" to="E17" via="E7 E8 E18 E25 E22 E23 E24 E41 E42 E53 E64 E62 E63">
        <stop busStop="bs_18" duration="20.00" until="2241.00"/>
        <stop busStop="bs_17" duration="20.00" until="2313.00"/>
        <stop busStop="bs_21" duration="20.00" until="2365.00"/>
        <stop busStop="bs_23" duration="20.00" until="2413.00"/>
        <stop busStop="bs_5" duration="20.00" until="2464.00"/>
        <stop busStop="bs_6" duration="20.00" until="2510.00"/>
        <stop busStop="bs_10" duration="20.00" until="2558.00"/>
    </trip>
    <trip id="b_33" type="Bus_143_Freiham" depart="2340.00" from="E7" to="E46" via="E8 E18 E25 E36 E37 -E29 E27 E28">
        <stop busStop="bs_1" duration="20.00" until="2439.00"/>
        <stop busStop="bs_19" duration="20.00" until="2494.00"/>
        <stop busStop="bs_20" duration="20.00" until="2574.00"/>
    </trip>
    <trip id="b_34" type="Bus_156_Freiham" depart="2400.00" from="E18" to="E67" via="E25 E36 E37 E30 E32 E39 E43 E44 E53 E64 E62 E63 E19 E20 E65 E70 E71">
        <stop busStop="bs_0" duration="20.00" until="2421.00"/>
        <stop busStop="bs_1" duration="20.00" until="2505.00"/>
        <stop busStop="bs_2" duration="20.00" until="2555.00"/>
        <stop busStop="bs_3" duration="20.00" until="2602.00"/>
        <stop busStop="bs_4" duration="20.00" until="2661.00"/>
        <stop busStop="bs_5" duration="20.00" until="2711.00"/>
        <stop busStop="bs_6" duration="20.00" until="2758.00"/>
        <stop busStop="bs_7" duration="20.00" until="2806.00"/>
        <stop busStop="bs_8" duration="20.00" until="2862.00"/>
        <stop busStop="bs_9" duration="20.00" until="2913.00"/>
    </trip>
    <trip id="b_35" type="Bus_157_Aubing" depart="2400.00" from="-E71" to="-E8" via="-E70 -E65 -E16 -E15 -E0 E10 E11 E6 -E52 -E50 E44 -E42 -E41 -E24 -E23 -E22 -E25 -E18">
        <stop busStop="bs_39" duration="20.00" until="2435.00"/>
        <stop busStop="bs_38" duration="20.00" until="2490.00"/>
        <stop busStop="bs_36" duration="20.00" until="2538.00"/>
        <stop busStop="bs_32" duration="20.00" until="2598.00"/>
        <stop busStop="bs_34" duration="20.00" until="2646.00"/>
        <stop busStop="bs_31" duration="20.00" until="2692.00"/>
        <stop busStop="bs_4" duration="20.00" until="2743.00"/>
        <stop busStop="bs_28" duration="20.00" until="2793.00"/>
        <stop busStop="bs_24" duration="20.00" until="2845.00"/>
        <stop busStop="bs_42" duration="20.00" until="2904.00"/>
    </trip>
    <trip id="b_36" type="Bus_57_Aubing" depart="2460.00" from="-E17" to="-E2" via="-E63 -E62 -E64 -E53 -E42 -E41 -E24 -E23 -E22 -E25 -E18 -E8 -E7">
        <stop busStop="bs_37" duration="20.00" until="2491.00"/>
        <stop busStop="bs_35" duration="20.00" until="2542.00"/>
        <stop busStop="bs_33" duration="20.00" until="2587.00"/>
        <stop busStop="bs_30" duration="20.00" until="2638.00"/>
        <stop busStop="bs_28" duration="20.00" until="2685.00"/>
        <stop busStop="bs_24" duration="20.00" until="2737.00"/>
        <stop busStop="bs_45" duration="20.00" until="2816.00"/>
    </trip>
    <trip id="b_37" type="Bus_157_Freiham" depart="2580.00" from="E8" to="E71" via="E18 E25 E22 E23 E24 E41 E42 -E49 E50 E52 -E6 -E11 -E10 E0 E15 E16 E65 E70">
        <stop busStop="bs_15" duration="20.00" until="2601.00"/>
        <stop busStop="bs_17" duration="20.00" until="2661.00"/>
        <stop busStop="bs_21" duration="20.00" until="2714.00"/>
        <stop busStop="bs_23" duration="20.00" until="2763.00"/>
        <stop busStop="bs_14" duration="20.00" until="2818.00"/>
        <stop busStop="bs_13" duration="20.00" until="2866.00"/>
        <stop busStop="bs_12" duration="20.00" until="2912.00"/>
        <stop busStop="bs_11" duration="20.00" until="2973.00"/>
        <stop busStop="bs_7" duration="20.00" until="3022.00"/>
        <stop busStop="bs_8" duration="20.00" until="3078.00"/>
    </trip>
    <trip id="b_38" type="Bus_57_Freiham" depart="2640.00" from="E2" to="E17" via="E7 E8 E18 E25 E22 E23 E24 E41 E42 E53 E64 E62 E63">
        <stop busStop="bs_18" duration="20.00" until="2661.00"/>
        <stop busStop="bs_17" duration="20.00" until="2733.00"/>
        <stop busStop="bs_21" duration="20.00" until="2785.00"/>
        <stop busStop="bs_23" duration="20.00" until="2833.00"/>
        <stop busStop="bs_5" duration="20.00" until="2884.00"/>
        <stop busStop="bs_6" duration="20.00" until="2930.00"/>
        <stop busStop="bs_10" duration="20.00" until="2978.00"/>
    </trip>
    <trip id="b_39" type="Bus_156_Aubing" depart="2700.00" from="-E67" to="-E18" via="-E71 -E70 -E65 -E20 -E19 -E63 -E62 -E64 -E53 -E49 -E43 -E39 -E32 -E30 -E37 -E36 -E25">
        <stop busStop="bs_40" duration="20.00" until="2744.00"/>
        <stop busStop="bs_39" duration="20.00" until="2795.00"/>
        <stop busStop="bs_38" duration="20.00" until="2850.00"/>
        <stop busStop="bs_35" duration="20.00" until="2897.00"/>
        <stop busStop="bs_33" duration="20.00" until="2942.00"/>
        <stop busStop="bs_29" duration="20.00" until="2994.00"/>
        <stop busStop="bs_44" duration="20.00" until="3057.00"/>
        <stop busStop="bs_25" duration="20.00" until="3104.00"/>
        <stop busStop="bs_26" duration="20.00" until="3154.00"/>
        <stop busStop="bs_41" duration="20.00" until="3237.00"/>
    </trip>
    <trip id="b_40" type="Bus_143_Aubing" depart="2760.00" from="-E46" to="-E7" via="-E28 -E27 E29 -E37 -E36 -E25 -E18 -E8">
        <stop busStop="bs_22" duration="20.00" until="2781.00"/>
        <stop busStop="bs_27" duration="20.00" until="2863.00"/>
        <stop busStop="bs_26" duration="20.00" until="2920.00"/>
        <stop busStop="bs_43" duration="20.00" until="3019.00"/>
    </trip>
    <trip id="b_41" type="Bus_57_Aubing" depart="2880.00" from="-E17" to="-E2" via="-E63 -E62 -E64 -E53 -E42 -E41 -E24 -E23 -E22 -E25 -E18 -E8 -E7">
        <stop busStop="bs_37" duration="20.00" until="2911.00"/>
        <stop busStop="bs_35" duration="20.00" until="2962.00"/>
        <stop busStop="bs_33" duration="20.00" until="3007.00"/>
        <stop busStop="bs_30" duration="20.00" until="3058.00"/>
        <stop busStop="bs_28" duration="20.00" until="3105.00"/>
        <stop busStop="bs_24" duration="20.00" until="3157.00"/>
        <stop busStop="bs_45" duration="20.00" until="3236.00"/>
    </trip>
    <trip id="b_42" type="Bus_143_Freiham" depart="2940.00" from="E7" to="E46" via="E8 E18 E25 E36 E37 -E29 E27 E28">
        <stop busStop="bs_1" duration="20.00" until="3039.00"/>
        <stop busStop="bs_19" duration="20.00" until="3094.00"/>
        <stop busStop="bs_20" duration="20.00" until="3174.00"/>
    </trip>
    <trip id="b_43" type="Bus_156_Freiham" depart="3000.00" from="E18" to="E67" via="E25 E36 E37 E30 E32 E39 E43 E44 E53 E64 E62 E63 E19 E20 E65 E70 E71">
        <stop busStop="bs_0" duration="20.00" until="3021.00"/>
        <stop busStop="bs_1" duration="20.00" until="3105.00"/>
        <stop busStop="bs_2" duration="20.00" until="3155.00"/>
        <stop busStop="bs_3" duration="20.00" until="3202.00"/>
        <stop busStop="bs_4" duration="20.00" until="3261.00"/>
        <stop busStop="bs_5" duration="20.00" until="3311.00"/>
        <stop busStop="bs_6" duration="20.00" until="3358.00"/>
        <stop busStop="bs_7" duration="20.00" until="3406.00"/>
        <stop busStop="bs_8" duration="20.00" until="3462.00"/>
        <stop busStop="bs_9" duration="20.00" until="3513.00"/>
    </trip>
    <trip id="b_44" type="Bus_157_Aubing" depart="3000.00" from="-E71" to="-E8" via="-E70 -E65 -E16 -E15 -E0 E10 E11 E6 -E52 -E50 E44 -E42 -E41 -E24 -E23 -E22 -E25 -E18">
        <stop busStop="bs_39" duration="20.00" until="3035.00"/>