<?xml version="1.0" encoding="UTF-8"?>

<!-- generated on 2026-01-17T21:12:03.852237+01:00 by Eclipse SUMO netedit v1_25_0+0150-04664dcec11
-->

<routes xmlns:xsi="http://www.w3.org/2001/XMLSchema-instance" xsi:noNamespaceSchemaLocation="http://sumo.dlr.de/xsd/routes_file.xsd">
    <!-- Vehicles, persons and containers (sorted by depart) -->
    <person id="p_t_0_out" depart="3702.00">
        <stop busStop="bs_34" duration="0.10"/>
        <ride busStop="bs_24" lines="b_53"/>
    </person>
    <person id="p_t_1_out" depart="3720.00">
        <stop busStop="bs_33" duration="0.10"/>
        <ride busStop="bs_24" lines="b_54"/>
    </person>
    <person id="p_t_2_out" depart="3871.00">
        <stop busStop="bs_33" duration="0.10"/>
        <ride busStop="bs_24" lines="b_60"/>
    </person>
    <person id="p_t_3_out" depart="4112.00">
        <stop busStop="bs_33" duration="0.10"/>
        <ride busStop="bs_24" lines="b_60"/>
    </person>
    <person id="p_t_4_out" depart="4302.00">
        <stop busStop="bs_35" duration="0.10"/>
        <ride busStop="bs_24" lines="b_67"/>
    </person>
    <person id="p_t_5_out" depart="4366.00">
        <stop busStop="bs_4" duration="0.10"/>
        <ride busStop="bs_24" lines="b_62"/>
    </person>
    <person id="p_t_6_out" depart="4445.00">
        <stop busStop="bs_33" duration="0.10"/>
        <ride busStop="bs_24" lines="b_67"/>
    </person>
    <person id="p_t_7_out" depart="4483.00">
        <stop busStop="bs_28" duration="0.10"/>
        <ride busStop="bs_24" lines="b_62"/>
    </person>
    <person id="p_t_8_out" depart="4602.00">
        <stop busStop="bs_1" duration="0.10"/>
        <ride busStop="bs_19" lines="b_68"/>
    </person>
    <person id="p_t_9_out" depart="4808.00">
        <stop busStop="bs_35" duration="0.10"/>
        <ride busStop="bs_24" lines="b_73"/>
    </person>
    <person id="p_t_10_out" depart="4983.00">
        <stop busStop="bs_28" duration="0.10"/>
        <ride busStop="bs_24" lines="b_71"/>
    </person>
    <person id="p_t_11_out" depart="5119.00">
        <stop busStop="bs_30" duration="0.10"/>
        <ride busStop="bs_24" lines="b_80"/>
    </person>
    <person id="p_t_1_ret" depart="5170.00">
        <stop busStop="bs_17" duration="0.10"/>
        <ride busStop="bs_5" lines="b_76"/>
    </person>
    <person id="p_t_0_ret" depart="5218.00">
        <stop busStop="bs_17" duration="0.10"/>
        <ride busStop="bs_13" lines="b_81"/>
    </person>
    <person id="p_t_12_out" depart="5431.00">
        <stop busStop="bs_28" duration="0.10"/>
        <ride busStop="bs_24" lines="b_79"/>
    </person>
    <person id="p_t_2_ret" depart="5590.00">
        <stop busStop="bs_17" duration="0.10"/>
        <ride busStop="bs_13" lines="b_81"/>
    </person>
    <person id="p_t_3_ret" depart="5590.00">
        <stop busStop="bs_17" duration="0.10"/>
        <ride busStop="bs_5" lines="b_82"/>
    </person>
    <person id="p_t_13_out" depart="5754.00">
        <stop busStop="bs_34" duration="0.10"/>
        <ride busStop="bs_24" lines="b_88"/>
    </person>
    <person id="p_t_5_ret" depart="5818.00">
        <stop busStop="bs_17" duration="0.10"/>
        <ride busStop="bs_23" lines="b_89"/>
    </person>
    <person id="p_t_7_ret" depart="5818.00">
        <stop busStop="bs_17" duration="0.10"/>
        <ride busStop="bs_21" lines="b_89"/>
    </person>
    <person id="p_t_4_ret" depart="6010.00">
        <stop busStop="bs_17" duration="0.10"/>
        <ride busStop="bs_6" lines="b_89"/>
    </person>
    <person id="p_t_6_ret" depart="6010.00">
        <stop busStop="bs_17" duration="0.10"/>
        <ride busStop="bs_5" lines="b_89"/>
    </person>
    <person id="p_t_8_ret" depart="6223.00">
        <stop busStop="bs_27" duration="0.10"/>
        <ride busStop="bs_26" lines="b_93"/>
    </person>
    <person id="p_t_10_ret" depart="6418.00">
        <stop busStop="bs_17" duration="0.10"/>
        <ride busStop="bs_21" lines="b_94"/>
    </person>
    <person id="p_t_9_ret" depart="6430.00">
        <stop busStop="bs_17" duration="0.10"/>
        <ride busStop="bs_6" lines="b_94"/>
    </person>
    <person id="p_t_14_out" depart="6661.00">
        <stop busStop="bs_31" duration="0.10"/>
        <ride busStop="bs_24" lines="b_97"/>
    </person>
    <person id="p_t_15_out" depart="6782.00">
        <stop busStop="bs_35" duration="0.10"/>
        <ride busStop="bs_24" lines="b_103"/>
    </person>
    <person id="p_t_16_out" depart="6837.00">
        <stop busStop="bs_30" duration="0.10"/>
        <ride busStop="bs_24" lines="b_103"/>
    </person>
    <person id="p_t_11_ret" depart="6850.00">
        <stop busStop="bs_17" duration="0.10"/>
        <ride busStop="bs_23" lines="b_100"/>
    </person>
    <person id="p_t_17_out" depart="6940.00">
        <stop busStop="bs_36" duration="0.10"/>
        <ride busStop="bs_24" lines="b_106"/>
    </person>
    <person id="p_t_12_ret" depart="7018.00">
        <stop busStop="bs_19" duration="0.10"/>
        <ride busStop="bs_20" lines="b_104"/>
    </person>
    <person id="p_t_18_out" depart="7318.00">
        <stop busStop="bs_28" duration="0.10"/>
        <ride busStop="bs_24" lines="b_106"/>
    </person>
    <person id="p_t_19_out" depart="7329.00">
        <stop busStop="bs_34" duration="0.10"/>
        <ride busStop="bs_24" lines="b_106"/>
    </person>
    <person id="p_t_20_out" depart="7344.00">
        <stop busStop="bs_32" duration="0.10"/>
        <ride busStop="bs_24" lines="b_115"/>
    </person>
    <person id="p_t_21_out" depart="7388.00">
        <stop busStop="bs_35" duration="0.10"/>
        <ride busStop="bs_41" lines="b_109"/>
    </person>
    <person id="p_t_22_out" depart="7426.00">
        <stop busStop="bs_33" duration="0.10"/>
        <ride busStop="bs_29" lines="b_109"/>
    </person>
    <person id="p_t_13_ret" depart="7618.00">
        <stop busStop="bs_17" duration="0.10"/>
        <ride busStop="bs_23" lines="b_112"/>
    </person>
    <person id="p_t_23_out" depart="7630.00">
        <stop busStop="bs_44" duration="0.10"/>
        <ride busStop="bs_41" lines="b_109"/>
    </person>
    <person id="p_t_24_out" depart="7672.00">
        <stop busStop="bs_32" duration="0.10"/>
        <ride busStop="bs_24" lines="b_115"/>
    </person>
    <person id="p_t_25_out" depart="7778.00">
        <stop busStop="bs_33" duration="0.10"/>
        <ride busStop="bs_24" lines="b_116"/>
    </person>
    <person id="p_t_26_out" depart="7780.00">
        <stop busStop="bs_33" duration="0.10"/>
        <ride busStop="bs_24" lines="b_116"/>
    </person>
    <person id="p_t_27_out" depart="7923.00">
        <stop busStop="bs_33" duration="0.10"/>
        <ride busStop="bs_29" lines="b_118"/>
    </person>
    <person id="p_t_28_out" depart="7957.00">
        <stop busStop="bs_21" duration="0.10"/>
        <ride busStop="bs_23" lines="b_117"/>
    </person>
    <person id="p_t_29_out" depart="7991.00">
        <stop busStop="bs_35" duration="0.10"/>
        <ride busStop="bs_24" lines="b_122"/>
    </person>
    <person id="p_t_30_out" depart="8117.00">
        <stop busStop="bs_32" duration="0.10"/>
        <ride busStop="bs_24" lines="b_124"/>
    </person>
    <person id="p_t_31_out" depart="8197.00">
        <stop busStop="bs_33" duration="0.10"/>
        <ride busStop="bs_24" lines="b_122"/>
    </person>
    <person id="p_t_32_out" depart="8198.00">
        <stop busStop="bs_33" duration="0.10"/>
        <ride busStop="bs_24" lines="b_122"/>
    </person>
    <person id="p_t_14_ret" depart="8218.00">
        <stop busStop="bs_17" duration="0.10"/>
        <ride busStop="bs_14" lines="b_126"/>
    </person>
    <person id="p_t_33_out" depart="8268.00">
        <stop busStop="bs_36" duration="0.10"/>
        <ride busStop="bs_4" lines="b_124"/>
    </person>
    <person id="p_t_34_out" depart="8271.00">
        <stop busStop="bs_30" duration="0.10"/>
        <ride busStop="bs_24" lines="b_122"/>
    </person>
    <person id="p_t_35_out" depart="8276.00">
        <stop busStop="bs_28" duration="0.10"/>
        <ride busStop="bs_24" lines="b_122"/>
    </person>
    <person id="p_t_36_out" depart="8322.00">
        <stop busStop="bs_17" duration="0.10"/>
        <ride busStop="bs_23" lines="b_125"/>
    </person>
    <person id="p_t_37_out" depart="8410.00">
        <stop busStop="bs_4" duration="0.10"/>
        <ride busStop="bs_24" lines="b_124"/>
    </person>
    <person id="p_t_38_out" depart="8428.00">
        <stop busStop="bs_28" duration="0.10"/>
        <ride busStop="bs_24" lines="b_122"/>
    </person>
    <person id="p_t_39_out" depart="8487.00">
        <stop busStop="bs_28" duration="0.10"/>
        <ride busStop="bs_24" lines="b_124"/>
    </person>
    <person id="p_t_40_out" depart="8509.00">
        <stop busStop="bs_34" duration="0.10"/>
        <ride busStop="bs_24" lines="b_124"/>
    </person>
    <person id="p_t_15_ret" depart="8530.00">
        <stop busStop="bs_17" duration="0.10"/>
        <ride busStop="bs_12" lines="b_126"/>
    </person>
    <person id="p_t_16_ret" depart="8530.00">
        <stop busStop="bs_17" duration="0.10"/>
        <ride busStop="bs_14" lines="b_126"/>
    </person>
    <person id="p_t_41_out" depart="8609.00">
        <stop busStop="bs_28" duration="0.10"/>
        <ride busStop="bs_24" lines="b_129"/>
    </person>
    <person id="p_t_42_out" depart="8662.00">
        <stop busStop="bs_30" duration="0.10"/>
        <ride busStop="bs_24" lines="b_129"/>
    </person>
    <person id="p_t_43_out" depart="8682.00">
        <stop busStop="bs_4" duration="0.10"/>
        <ride busStop="bs_24" lines="b_124"/>
    </person>
    <person id="p_t_44_out" depart="8706.00">
        <stop busStop="bs_14" duration="0.10"/>
        <ride busStop="bs_13" lines="b_126"/>
    </person>
    <person id="p_t_45_out" depart="8707.00">
        <stop busStop="bs_34" duration="0.10"/>
        <ride busStop="bs_4" lines="b_133"/>
    </person>
    <person id="p_t_46_out" depart="8711.00">
        <stop busStop="bs_34" duration="0.10"/>
        <ride busStop="bs_24" lines="b_133"/>
    </person>
    <person id="p_t_47_out" depart="8714.00">
        <stop busStop="bs_21" duration="0.10"/>
        <ride busStop="bs_23" lines="b_131"/>
    </person>
    <person id="p_t_17_ret" depart="8818.00">
        <stop busStop="bs_17" duration="0.10"/>
        <ride busStop="bs_6" lines="b_131"/>
    </person>
    <person id="p_t_18_ret" depart="8818.00">
        <stop busStop="bs_17" duration="0.10"/>
        <ride busStop="bs_21" lines="b_131"/>
    </person>
    <person id="p_t_19_ret" depart="8818.00">
        <stop busStop="bs_17" duration="0.10"/>
        <ride busStop="bs_5" lines="b_131"/>
    </person>
    <person id="p_t_48_out" depart="8834.00">
        <stop busStop="bs_30" duration="0.10"/>
        <ride busStop="bs_24" lines="b_129"/>
    </person>
    <person id="p_t_49_out" depart="8837.00">
        <stop busStop="bs_29" duration="0.10"/>
        <ride busStop="bs_41" lines="b_127"/>
    </person>
    <person id="p_t_50_out" depart="9029.00">
        <stop busStop="bs_28" duration="0.10"/>
        <ride busStop="bs_24" lines="b_133"/>
    </person>
    <person id="p_t_51_out" depart="9046.00">
        <stop busStop="bs_31" duration="0.10"/>
        <ride busStop="bs_24" lines="b_133"/>
    </person>
    <person id="p_t_22_ret" depart="9056.00">
        <stop busStop="bs_23" duration="0.10"/>
        <ride busStop="bs_13" lines="b_134"/>
    </person>
    <person id="p_t_52_out" depart="9068.00">
        <stop busStop="bs_31" duration="0.10"/>
        <ride busStop="bs_24" lines="b_133"/>
    </person>
    <person id="p_t_53_out" depart="9089.00">
        <stop busStop="bs_34" duration="0.10"/>
        <ride busStop="bs_24" lines="b_133"/>
    </person>
    <person id="p_t_54_out" depart="9289.00">
        <stop busStop="bs_33" duration="0.10"/>
        <ride busStop="bs_24" lines="b_142"/>
    </person>
    <person id="p_t_55_out" depart="9294.00">
        <stop busStop="bs_33" duration="0.10"/>
        <ride busStop="bs_24" lines="b_142"/>
    </person>
    <person id="p_t_56_out" depart="9329.00">
        <stop busStop="bs_35" duration="0.10"/>
        <ride busStop="bs_24" lines="b_142"/>
    </person>
    <person id="p_t_21_ret" depart="9351.00">
        <stop busStop="bs_17" duration="0.10"/>
        <ride busStop="bs_6" lines="b_138"/>
    </person>
    <person id="p_t_23_ret" depart="9351.00">
        <stop busStop="bs_17" duration="0.10"/>
        <ride busStop="bs_23" lines="b_138"/>
    </person>
    <person id="p_t_25_ret" depart="9370.00">
        <stop busStop="bs_17" duration="0.10"/>
        <ride busStop="bs_5" lines="b_138"/>
    </person>
    <person id="p_t_26_ret" depart="9370.00">
        <stop busStop="bs_17" duration="0.10"/>
        <ride busStop="bs_5" lines="b_138"/>
    </person>
    <person id="p_t_28_ret" depart="9375.00">
        <stop busStop="bs_30" duration="0.10"/>
        <ride busStop="bs_28" lines="b_142"/>
    </person>
    <person id="p_t_57_out" depart="9399.00">
        <stop busStop="bs_36" duration="0.10"/>
        <ride busStop="bs_4" lines="b_141"/>
    </person>
    <person id="p_t_20_ret" depart="9418.00">
        <stop busStop="bs_17" duration="0.10"/>
        <ride busStop="bs_12" lines="b_143"/>
    </person>
    <person id="p_t_24_ret" depart="9418.00">
        <stop busStop="bs_17" duration="0.10"/>
        <ride busStop="bs_12" lines="b_143"/>
    </person>
    <person id="p_t_58_out" depart="9464.00">
        <stop busStop="bs_21" duration="0.10"/>
        <ride busStop="bs_23" lines="b_143"/>
    </person>
    <person id="p_t_59_out" depart="9476.00">
        <stop busStop="bs_33" duration="0.10"/>
        <ride busStop="bs_30" lines="b_142"/>
    </person>
    <person id="p_t_60_out" depart="9483.00">
        <stop busStop="bs_17" duration="0.10"/>
        <ride busStop="bs_23" lines="b_143"/>
    </person>
    <person id="p_t_61_out" depart="9588.00">
        <stop busStop="bs_4" duration="0.10"/>
        <ride busStop="bs_24" lines="b_141"/>
    </person>
    <person id="p_t_62_out" depart="9650.00">
        <stop busStop="bs_32" duration="0.10"/>
        <ride busStop="bs_4" lines="b_141"/>
    </person>
    <person id="p_t_27_ret" depart="9656.00">
        <stop busStop="bs_4" duration="0.10"/>
        <ride busStop="bs_5" lines="b_140"/>
    </person>
    <person id="p_t_63_out" depart="9744.00">
        <stop busStop="bs_33" duration="0.10"/>
        <ride busStop="bs_24" lines="b_147"/>
    </person>
    <person id="p_t_64_out" depart="9775.00">
        <stop busStop="bs_34" duration="0.10"/>
        <ride busStop="bs_24" lines="b_141"/>
    </person>
    <person id="p_t_65_out" depart="9781.00">
        <stop busStop="bs_28" duration="0.10"/>
        <ride busStop="bs_24" lines="b_141"/>
    </person>
    <person id="p_t_29_ret" depart="9790.00">
        <stop busStop="bs_17" duration="0.10"/>
        <ride busStop="bs_12" lines="b_143"/>
    </person>
    <person id="p_t_31_ret" depart="9790.00">
        <stop busStop="bs_17" duration="0.10"/>
        <ride busStop="bs_23" lines="b_143"/>
    </person>
    <person id="p_t_32_ret" depart="9790.00">
        <stop busStop="bs_17" duration="0.10"/>
        <ride busStop="bs_5" lines="b_144"/>
    </person>
    <person id="p_t_34_ret" depart="9790.00">
        <stop busStop="bs_17" duration="0.10"/>
        <ride busStop="bs_23" lines="b_143"/>
    </person>
    <person id="p_t_35_ret" depart="9790.00">
        <stop busStop="bs_17" duration="0.10"/>
        <ride busStop="bs_21" lines="b_143"/>
    </person>
    <person id="p_t_38_ret" depart="9790.00">
        <stop busStop="bs_17" duration="0.10"/>
        <ride busStop="bs_21" lines="b_143"/>
    </person>
    <person id="p_t_66_out" depart="9804.00">
        <stop busStop="bs_22" duration="0.10"/>
        <ride busStop="bs_27" lines="b_146"/>
    </person>
    <person id="p_t_67_out" depart="9814.00">
        <stop busStop="bs_34" duration="0.10"/>
        <ride busStop="bs_4" lines="b_150"/>
    </person>
    <person id="p_t_68_out" depart="9844.00">
        <stop busStop="bs_32" duration="0.10"/>
        <ride busStop="bs_24" lines="b_150"/>
    </person>
    <person id="p_t_69_out" depart="9886.00">
        <stop busStop="bs_32" duration="0.10"/>
        <ride busStop="bs_4" lines="b_150"/>
    </person>
    <person id="p_t_70_out" depart="9905.00">
        <stop busStop="bs_35" duration="0.10"/>
        <ride busStop="bs_30" lines="b_147"/>
    </person>
    <person id="p_t_36_ret" depart="9925.00">
        <stop busStop="bs_30" duration="0.10"/>
        <ride busStop="bs_28" lines="b_147"/>
    </person>
    <person id="p_t_33_ret" depart="9995.00">
        <stop busStop="bs_23" duration="0.10"/>
        <ride busStop="bs_6" lines="b_151"/>
    </person>
    <person id="p_t_71_out" depart="10010.00">
        <stop busStop="bs_30" duration="0.10"/>
        <ride busStop="bs_24" lines="b_147"/>
    </person>
    <person id="p_t_30_ret" depart="10018.00">
        <stop busStop="bs_17" duration="0.10"/>
        <ride busStop="bs_12" lines="b_152"/>
    </person>
    <person id="p_t_37_ret" depart="10018.00">
        <stop busStop="bs_17" duration="0.10"/>
        <ride busStop="bs_23" lines="b_151"/>
    </person>
    <person id="p_t_39_ret" depart="10018.00">
        <stop busStop="bs_0" duration="0.10"/>
        <ride busStop="bs_3" lines="b_149"/>
    </person>
    <person id="p_t_40_ret" depart="10018.00">
        <stop busStop="bs_17" duration="0.10"/>
        <ride busStop="bs_23" lines="b_151"/>
    </person>
    <person id="p_t_43_ret" depart="10018.00">
        <stop busStop="bs_17" duration="0.10"/>
        <ride busStop="bs_23" lines="b_151"/>
    </person>
    <person id="p_t_72_out" depart="10022.00">
        <stop busStop="bs_32" duration="0.10"/>
        <ride busStop="bs_24" lines="b_150"/>
    </person>
    <person id="p_t_73_out" depart="10081.00">
        <stop busStop="bs_38" duration="0.10"/>
        <ride busStop="bs_24" lines="b_150"/>
    </person>
    <person id="p_t_74_out" depart="10145.00">
        <stop busStop="bs_33" duration="0.10"/>
        <ride busStop="bs_24" lines="b_153"/>
    </person>
    <person id="p_t_75_out" depart="10149.00">
        <stop busStop="bs_26" duration="0.10"/>
        <ride busStop="bs_41" lines="b_145"/>
    </person>
    <person id="p_t_76_out" depart="10181.00">
        <stop busStop="bs_35" duration="0.10"/>
        <ride busStop="bs_24" lines="b_153"/>
    </person>
    <person id="p_t_41_ret" depart="10210.00">
        <stop busStop="bs_17" duration="0.10"/>
        <ride busStop="bs_21" lines="b_151"/>
    </person>
    <person id="p_t_42_ret" depart="10210.00">
        <stop busStop="bs_17" duration="0.10"/>
        <ride busStop="bs_23" lines="b_151"/>
    </person>
    <person id="p_t_48_ret" depart="10210.00">
        <stop busStop="bs_17" duration="0.10"/>
        <ride busStop="bs_23" lines="b_151"/>
    </person>
    <person id="p_t_77_out" depart="10212.00">
        <stop busStop="bs_28" duration="0.10"/>
        <ride busStop="bs_24" lines="b_150"/>
    </person>
    <person id="p_t_78_out" depart="10246.00">
        <stop busStop="bs_33" duration="0.10"/>
        <ride busStop="bs_24" lines="b_153"/>
    </person>
    <person id="p_t_79_out" depart="10278.00">
        <stop busStop="bs_28" duration="0.10"/>
        <ride busStop="bs_24" lines="b_150"/>
    </person>
    <person id="p_t_80_out" depart="10322.00">
        <stop busStop="bs_28" duration="0.10"/>
        <ride busStop="bs_24" lines="b_150"/>
    </person>
    <person id="p_t_47_ret" depart="10345.00">
        <stop busStop="bs_4" duration="0.10"/>
        <ride busStop="bs_28" lines="b_150"/>
    </person>
    <person id="p_t_44_ret" depart="10462.00">
        <stop busStop="bs_23" duration="0.10"/>
        <ride busStop="bs_14" lines="b_152"/>
    </person>
    <person id="p_t_81_out" depart="10480.00">
        <stop busStop="bs_35" duration="0.10"/>
        <ride busStop="bs_30" lines="b_160"/>
    </person>
    <person id="p_t_49_ret" depart="10551.00">
        <stop busStop="bs_17" duration="0.10"/>
        <ride busStop="bs_23" lines="b_156"/>
    </person>
    <person id="p_t_82_out" depart="10574.00">
        <stop busStop="bs_3" duration="0.10"/>
        <ride busStop="bs_4" lines="b_158"/>
    </person>
    <person id="p_t_83_out" depart="10577.00">
        <stop busStop="bs_21" duration="0.10"/>
        <ride busStop="bs_23" lines="b_156"/>
    </person>
    <person id="p_t_45_ret" depart="10595.00">
        <stop busStop="bs_23" duration="0.10"/>
        <ride busStop="bs_5" lines="b_156"/>
    </person>
    <person id="p_t_46_ret" depart="10618.00">
        <stop busStop="bs_17" duration="0.10"/>
        <ride busStop="bs_5" lines="b_156"/>
    </person>
    <person id="p_t_50_ret" depart="10618.00">
        <stop busStop="bs_17" duration="0.10"/>
        <ride busStop="bs_21" lines="b_156"/>
    </person>
    <person id="p_t_51_ret" depart="10618.00">
        <stop busStop="bs_17" duration="0.10"/>
        <ride busStop="bs_23" lines="b_156"/>
    </person>
    <person id="p_t_52_ret" depart="10618.00">
        <stop busStop="bs_17" duration="0.10"/>
        <ride busStop="bs_23" lines="b_156"/>
    </person>
    <person id="p_t_53_ret" depart="10618.00">
        <stop busStop="bs_17" duration="0.10"/>
        <ride busStop="bs_5" lines="b_156"/>
    </person>
    <person id="p_t_84_out" depart="10627.00">
        <stop busStop="bs_34" duration="0.10"/>
        <ride busStop="bs_24" lines="b_159"/>
    </person>
    <person id="p_t_85_out" depart="10645.00">
        <stop busStop="bs_35" duration="0.10"/>
        <ride busStop="bs_24" lines="b_160"/>
    </person>
    <person id="p_t_86_out" depart="10656.00">
        <stop busStop="bs_33" duration="0.10"/>
        <ride busStop="bs_24" lines="b_160"/>
    </person>
    <person id="p_t_87_out" depart="10711.00">
        <stop busStop="bs_35" duration="0.10"/>
        <ride busStop="bs_24" lines="b_160"/>
    </person>
    <person id="p_t_88_out" depart="10738.00">
        <stop busStop="bs_34" duration="0.10"/>
        <ride busStop="bs_24" lines="b_159"/>
    </person>
    <person id="p_t_89_out" depart="10798.00">
        <stop busStop="bs_31" duration="0.10"/>
        <ride busStop="bs_24" lines="b_159"/>
    </person>
    <person id="p_t_90_out" depart="10801.00">
        <stop busStop="bs_30" duration="0.10"/>
        <ride busStop="bs_24" lines="b_160"/>
    </person>
    <person id="p_t_91_out" depart="10834.00">
        <stop busStop="bs_32" duration="0.10"/>
        <ride busStop="bs_4" lines="b_159"/>
    </person>
    <person id="p_t_92_out" depart="10834.00">
        <stop busStop="bs_35" duration="0.10"/>
        <ride busStop="bs_24" lines="b_165"/>
    </person>
    <person id="p_t_93_out" depart="10865.00">
        <stop busStop="bs_33" duration="0.10"/>
        <ride busStop="bs_24" lines="b_165"/>
    </person>
    <person id="p_t_94_out" depart="10871.00">
        <stop busStop="bs_31" duration="0.10"/>
        <ride busStop="bs_24" lines="b_159"/>
    </person>
    <person id="p_t_95_out" depart="10888.00">
        <stop busStop="bs_34" duration="0.10"/>
        <ride busStop="bs_4" lines="b_159"/>
    </person>
    <person id="p_t_96_out" depart="10906.00">
        <stop busStop="bs_35" duration="0.10"/>
        <ride busStop="bs_24" lines="b_165"/>
    </person>
    <person id="p_t_97_out" depart="10926.00">
        <stop busStop="bs_28" duration="0.10"/>
        <ride busStop="bs_24" lines="b_159"/>
    </person>
    <person id="p_t_59_ret" depart="10998.00">
        <stop busStop="bs_23" duration="0.10"/>
        <ride busStop="bs_5" lines="b_162"/>
    </person>
    <person id="p_t_98_out" depart="11035.00">
        <stop busStop="bs_27" duration="0.10"/>
        <ride busStop="bs_43" lines="b_164"/>
    </person>
    <person id="p_t_54_ret" depart="11050.00">
        <stop busStop="bs_17" duration="0.10"/>
        <ride busStop="bs_23" lines="b_162"/>
    </person>
    <person id="p_t_55_ret" depart="11050.00">
        <stop busStop="bs_17" duration="0.10"/>
        <ride busStop="bs_5" lines="b_162"/>
    </person>
    <person id="p_t_56_ret" depart="11050.00">
        <stop busStop="bs_17" duration="0.10"/>
        <ride busStop="bs_6" lines="b_162"/>
    </person>
    <person id="p_t_99_out" depart="11103.00">
        <stop busStop="bs_34" duration="0.10"/>
        <ride busStop="bs_24" lines="b_168"/>
    </person>
    <person id="p_t_100_out" depart="11107.00">
        <stop busStop="bs_35" duration="0.10"/>
        <ride busStop="bs_24" lines="b_165"/>
    </person>
    <person id="p_t_101_out" depart="11151.00">
        <stop busStop="bs_17" duration="0.10"/>
        <ride busStop="bs_23" lines="b_169"/>
    </person>
    <person id="p_t_102_out" depart="11170.00">
        <stop busStop="bs_37" duration="0.10"/>
        <ride busStop="bs_24" lines="b_165"/>
    </person>
    <person id="p_t_58_ret" depart="11175.00">
        <stop busStop="bs_30" duration="0.10"/>
        <ride busStop="bs_28" lines="b_165"/>
    </person>
    <person id="p_t_60_ret" depart="11175.00">
        <stop busStop="bs_30" duration="0.10"/>
        <ride busStop="bs_24" lines="b_165"/>
    </person>
    <person id="p_t_103_out" depart="11179.00">
        <stop busStop="bs_28" duration="0.10"/>
        <ride busStop="bs_24" lines="b_165"/>
    </person>
    <person id="p_t_57_ret" depart="11195.00">
        <stop busStop="bs_23" duration="0.10"/>
        <ride busStop="bs_6" lines="b_169"/>
    </person>
    <person id="p_t_62_ret" depart="11195.00">
        <stop busStop="bs_23" duration="0.10"/>
        <ride busStop="bs_5" lines="b_169"/>
    </person>
    <person id="p_t_61_ret" depart="11218.00">
        <stop busStop="bs_17" duration="0.10"/>
        <ride busStop="bs_5" lines="b_169"/>
    </person>
    <person id="p_t_64_ret" depart="11218.00">
        <stop busStop="bs_17" duration="0.10"/>
        <ride busStop="bs_13" lines="b_170"/>
    </person>
    <person id="p_t_65_ret" depart="11218.00">
        <stop busStop="bs_17" duration="0.10"/>
        <ride busStop="bs_21" lines="b_169"/>
    </person>
    <person id="p_t_104_out" depart="11244.00">
        <stop busStop="bs_17" duration="0.10"/>
        <ride busStop="bs_23" lines="b_169"/>
    </person>
    <person id="p_t_105_out" depart="11322.00">
        <stop busStop="bs_33" duration="0.10"/>
        <ride busStop="bs_30" lines="b_172"/>
    </person>
    <person id="p_t_66_ret" depart="11392.00">
        <stop busStop="bs_17" duration="0.10"/>
        <ride busStop="bs_21" lines="b_169"/>
    </person>
    <person id="p_t_70_ret" depart="11418.00">
        <stop busStop="bs_23" duration="0.10"/>
        <ride busStop="bs_6" lines="b_169"/>
    </person>
    <person id="p_t_106_out" depart="11439.00">
        <stop busStop="bs_31" duration="0.10"/>
        <ride busStop="bs_24" lines="b_168"/>
    </person>
    <person id="p_t_107_out" depart="11444.00">
        <stop busStop="bs_4" duration="0.10"/>
        <ride busStop="bs_24" lines="b_168"/>
    </person>
    <person id="p_t_63_ret" depart="11470.00">
        <stop busStop="bs_17" duration="0.10"/>
        <ride busStop="bs_5" lines="b_169"/>
    </person>
    <person id="p_t_71_ret" depart="11470.00">
        <stop busStop="bs_17" duration="0.10"/>
        <ride busStop="bs_23" lines="b_169"/>
    </person>
    <person id="p_t_108_out" depart="11503.00">
        <stop busStop="bs_34" duration="0.10"/>
        <ride busStop="bs_24" lines="b_168"/>
    </person>
    <person id="p_t_109_out" depart="11506.00">
        <stop busStop="bs_35" duration="0.10"/>
        <ride busStop="bs_30" lines="b_172"/>
    </person>
    <person id="p_t_110_out" depart="11543.00">
        <stop busStop="bs_31" duration="0.10"/>
        <ride busStop="bs_24" lines="b_168"/>
    </person>
    <person id="p_t_111_out" depart="11651.00">
        <stop busStop="bs_28" duration="0.10"/>
        <ride busStop="bs_24" lines="b_168"/>
    </person>
    <person id="p_t_112_out" depart="11652.00">
        <stop busStop="bs_30" duration="0.10"/>
        <ride busStop="bs_24" lines="b_172"/>
    </person>
    <person id="p_t_113_out" depart="11652.00">
        <stop busStop="bs_28" duration="0.10"/>
        <ride busStop="bs_24" lines="b_168"/>
    </person>
    <person id="p_t_114_out" depart="11678.00">
        <stop busStop="bs_27" duration="0.10"/>
        <ride busStop="bs_43" lines="b_173"/>
    </person>
    <person id="p_t_75_ret" depart="11751.00">
        <stop busStop="bs_18" duration="0.10"/>
        <ride busStop="bs_17" lines="b_174"/>
    </person>
    <person id="p_t_115_out" depart="11768.00">
        <stop busStop="bs_29" duration="0.10"/>
        <ride busStop="bs_41" lines="b_171"/>
    </person>
    <person id="p_t_67_ret" depart="11795.00">
        <stop busStop="bs_29" duration="0.10"/>
        <ride busStop="bs_44" lines="b_171"/>
    </person>
    <person id="p_t_69_ret" depart="11795.00">
        <stop busStop="bs_23" duration="0.10"/>
        <ride busStop="bs_6" lines="b_174"/>
    </person>
    <person id="p_t_116_out" depart="11798.00">
        <stop busStop="bs_34" duration="0.10"/>
        <ride busStop="bs_24" lines="b_177"/>
    </person>
    <person id="p_t_117_out" depart="11817.00">
        <stop busStop="bs_29" duration="0.10"/>
        <ride busStop="bs_41" lines="b_171"/>
    </person>
    <person id="p_t_68_ret" depart="11818.00">
        <stop busStop="bs_17" duration="0.10"/>
        <ride busStop="bs_5" lines="b_174"/>
    </person>
    <person id="p_t_72_ret" depart="11818.00">
        <stop busStop="bs_17" duration="0.10"/>
        <ride busStop="bs_6" lines="b_174"/>
    </person>
    <person id="p_t_73_ret" depart="11818.00">