<?xml version="1.0" ?>
<routes xmlns:xsi="http://www.w3.org/2001/XMLSchema-instance" xsi:noNamespaceSchemaLocation="http://sumo.dlr.de/xsd/routes_file.xsd">
    <person id="p_t_0_out" depart="3702">
        <stop busStop="bs_34" duration="0.10"/>
        <ride busStop="bs_24" lines="b_53"/>
    </person>
    <person id="p_t_0_ret" depart="5218">
        <stop busStop="bs_17" duration="0.10"/>
        <ride busStop="bs_13" lines="b_81"/>
    </person>
    <person id="p_t_1_out" depart="3720">
        <stop busStop="bs_33" duration="0.10"/>
        <ride busStop="bs_24" lines="b_54"/>
    </person>
    <person id="p_t_1_ret" depart="5170">
        <stop busStop="bs_17" duration="0.10"/>
        <ride busStop="bs_5" lines="b_76"/>
    </person>
    <person id="p_t_2_out" depart="3871">
        <stop busStop="bs_33" duration="0.10"/>
        <ride busStop="bs_24" lines="b_60"/>
    </person>
    <person id="p_t_2_ret" depart="5590">
        <stop busStop="bs_17" duration="0.10"/>
        <ride busStop="bs_13" lines="b_81"/>
    </person>
    <person id="p_t_3_out" depart="4112">
        <stop busStop="bs_33" duration="0.10"/>
        <ride busStop="bs_24" lines="b_60"/>
    </person>
    <person id="p_t_3_ret" depart="5590">
        <stop busStop="bs_17" duration="0.10"/>
        <ride busStop="bs_5" lines="b_82"/>
    </person>
    <person id="p_t_4_out" depart="4302">
        <stop busStop="bs_35" duration="0.10"/>
        <ride busStop="bs_24" lines="b_67"/>
    </person>
    <person id="p_t_4_ret" depart="6010">
        <stop busStop="bs_17" duration="0.10"/>
        <ride busStop="bs_6" lines="b_89"/>
    </person>
    <person id="p_t_5_out" depart="4366">
        <stop busStop="bs_4" duration="0.10"/>
        <ride busStop="bs_24" lines="b_62"/>
    </person>
    <person id="p_t_5_ret" depart="5818">
        <stop busStop="bs_17" duration="0.10"/>
        <ride busStop="bs_23" lines="b_89"/>
    </person>
    <person id="p_t_6_out" depart="4445">
        <stop busStop="bs_33" duration="0.10"/>
        <ride busStop="bs_24" lines="b_67"/>
    </person>
    <person id="p_t_6_ret" depart="6010">
        <stop busStop="bs_17" duration="0.10"/>
        <ride busStop="bs_5" lines="b_89"/>
    </person>
    <person id="p_t_7_out" depart="4483">
        <stop busStop="bs_28" duration="0.10"/>
        <ride busStop="bs_24" lines="b_62"/>
    </person>
    <person id="p_t_7_ret" depart="5818">
        <stop busStop="bs_17" duration="0.10"/>
        <ride busStop="bs_21" lines="b_89"/>
    </person>
    <person id="p_t_8_out" depart="4602">
        <stop busStop="bs_1" duration="0.10"/>
        <ride busStop="bs_19" lines="b_68"/>
    </person>
    <person id="p_t_8_ret" depart="6223">
        <stop busStop="bs_27" duration="0.10"/>
        <ride busStop="bs_26" lines="b_93"/>
    </person>
    <person id="p_t_9_out" depart="4808">
        <stop busStop="bs_35" duration="0.10"/>
        <ride busStop="bs_24" lines="b_73"/>
    </person>
    <person id="p_t_9_ret" depart="6430">
        <stop busStop="bs_17" duration="0.10"/>
        <ride busStop="bs_6" lines="b_94"/>
    </person>
    <person id="p_t_10_out" depart="4983">
        <stop busStop="bs_28" duration="0.10"/>
        <ride busStop="bs_24" lines="b_71"/>
    </person>
    <person id="p_t_10_ret" depart="6418">
        <stop busStop="bs_17" duration="0.10"/>
        <ride busStop="bs_21" lines="b_94"/>
    </person>
    <person id="p_t_11_out" depart="5119">
        <stop busStop="bs_30" duration="0.10"/>
        <ride busStop="bs_24" lines="b_80"/>
    </person>
    <person id="p_t_11_ret" depart="6850">
        <stop busStop="bs_17" duration="0.10"/>
        <ride busStop="bs_23" lines="b_100"/>
    </person>
    <person id="p_t_12_out" depart="5431">
        <stop busStop="bs_28" duration="0.10"/>
        <ride busStop="bs_24" lines="b_79"/>
    </person>
    <person id="p_t_12_ret" depart="7018">
        <stop busStop="bs_19" duration="0.10"/>
        <ride busStop="bs_20" lines="b_104"/>
    </person>
    <person id="p_t_13_out" depart="5754">
        <stop busStop="bs_34" duration="0.10"/>
        <ride busStop="bs_24" lines="b_88"/>
    </person>
    <person id="p_t_13_ret" depart="7618">
        <stop busStop="bs_17" duration="0.10"/>
        <ride busStop="bs_23" lines="b_112"/>
    </person>
    <person id="p_t_14_out" depart="6661">
        <stop busStop="bs_31" duration="0.10"/>
        <ride busStop="bs_24" lines="b_97"/>
    </person>
    <person id="p_t_14_ret" depart="8218">
        <stop busStop="bs_17" duration="0.10"/>
        <ride busStop="bs_14" lines="b_126"/>
    </person>
    <person id="p_t_15_out" depart="6782">
        <stop busStop="bs_35" duration="0.10"/>
        <ride busStop="bs_24" lines="b_103"/>
    </person>
    <person id="p_t_15_ret" depart="8530">
        <stop busStop="bs_17" duration="0.10"/>
        <ride busStop="bs_12" lines="b_126"/>
    </person>
    <person id="p_t_16_out" depart="6837">
        <stop busStop="bs_30" duration="0.10"/>
        <ride busStop="bs_24" lines="b_103"/>
    </person>
    <person id="p_t_16_ret" depart="8530">
        <stop busStop="bs_17" duration="0.10"/>
        <ride busStop="bs_14" lines="b_126"/>
    </person>
    <person id="p_t_17_out" depart="6940">
        <stop busStop="bs_36" duration="0.10"/>
        <ride busStop="bs_24" lines="b_106"/>
    </person>
    <person id="p_t_17_ret" depart="8818">
        <stop busStop="bs_17" duration="0.10"/>
        <ride busStop="bs_6" lines="b_131"/>
    </person>
    <person id="p_t_18_out" depart="7318">
        <stop busStop="bs_28" duration="0.10"/>
        <ride busStop="bs_24" lines="b_106"/>
    </person>
    <person id="p_t_18_ret" depart="8818">
        <stop busStop="bs_17" duration="0.10"/>
        <ride busStop="bs_21" lines="b_131"/>
    </person>
    <person id="p_t_19_out" depart="7329">
        <stop busStop="bs_34" duration="0.10"/>
        <ride busStop="bs_24" lines="b_106"/>
    </person>
    <person id="p_t_19_ret" depart="8818">
        <stop busStop="bs_17" duration="0.10"/>
        <ride busStop="bs_5" lines="b_131"/>
    </person>
    <person id="p_t_20_out" depart="7344">
        <stop busStop="bs_32" duration="0.10"/>
        <ride busStop="bs_24" lines="b_115"/>
    </person>
    <person id="p_t_20_ret" depart="9418">
        <stop busStop="bs_17" duration="0.10"/>
        <ride busStop="bs_12" lines="b_143"/>
    </person>
    <person id="p_t_21_out" depart="7388">
        <stop busStop="bs_35" duration="0.10"/>
        <ride busStop="bs_41" lines="b_109"/>
    </person>
    <person id="p_t_21_ret" depart="9351">
        <stop busStop="bs_17" duration="0.10"/>
        <ride busStop="bs_6" lines="b_138"/>
    </person>
    <person id="p_t_22_out" depart="7426">
        <stop busStop="bs_33" duration="0.10"/>
        <ride busStop="bs_29" lines="b_109"/>
    </person>
    <person id="p_t_22_ret" depart="9056">
        <stop busStop="bs_23" duration="0.10"/>
        <ride busStop="bs_13" lines="b_134"/>
    </person>
    <person id="p_t_23_out" depart="7630">
        <stop busStop="bs_44" duration="0.10"/>
        <ride busStop="bs_41" lines="b_109"/>
    </person>
    <person id="p_t_23_ret" depart="9351">
        <stop busStop="bs_17" duration="0.10"/>
        <ride busStop="bs_23" lines="b_138"/>
    </person>
    <person id="p_t_24_out" depart="7672">
        <stop busStop="bs_32" duration="0.10"/>
        <ride busStop="bs_24" lines="b_115"/>
    </person>
    <person id="p_t_24_ret" depart="9418">
        <stop busStop="bs_17" duration="0.10"/>
        <ride busStop="bs_12" lines="b_143"/>
    </person>
    <person id="p_t_25_out" depart="7778">
        <stop busStop="bs_33" duration="0.10"/>
        <ride busStop="bs_24" lines="b_116"/>
    </person>
    <person id="p_t_25_ret" depart="9370">
        <stop busStop="bs_17" duration="0.10"/>
        <ride busStop="bs_5" lines="b_138"/>
    </person>
    <person id="p_t_26_out" depart="7780">
        <stop busStop="bs_33" duration="0.10"/>
        <ride busStop="bs_24" lines="b_116"/>
    </person>
    <person id="p_t_26_ret" depart="9370">
        <stop busStop="bs_17" duration="0.10"/>
        <ride busStop="bs_5" lines="b_138"/>
    </person>
    <person id="p_t_27_out" depart="7923">
        <stop busStop="bs_33" duration="0.10"/>
        <ride busStop="bs_29" lines="b_118"/>
    </person>
    <person id="p_t_27_ret" depart="9656">
        <stop busStop="bs_4" duration="0.10"/>
        <ride busStop="bs_5" lines="b_140"/>
    </person>
    <person id="p_t_28_out" depart="7957">
        <stop busStop="bs_21" duration="0.10"/>
        <ride busStop="bs_23" lines="b_117"/>
    </person>
    <person id="p_t_28_ret" depart="9375">
        <stop busStop="bs_30" duration="0.10"/>
        <ride busStop="bs_28" lines="b_142"/>
    </person>
    <person id="p_t_29_out" depart="7991">
        <stop busStop="bs_35" duration="0.10"/>
        <ride busStop="bs_24" lines="b_122"/>
    </person>
    <person id="p_t_29_ret" depart="9790">
        <stop busStop="bs_17" duration="0.10"/>
        <ride busStop="bs_12" lines="b_143"/>
    </person>
    <person id="p_t_30_out" depart="8117">
        <stop busStop="bs_32" duration="0.10"/>
        <ride busStop="bs_24" lines="b_124"/>
    </person>
    <person id="p_t_30_ret" depart="10018">
        <stop busStop="bs_17" duration="0.10"/>
        <ride busStop="bs_12" lines="b_152"/>
    </person>
    <person id="p_t_31_out" depart="8197">
        <stop busStop="bs_33" duration="0.10"/>
        <ride busStop="bs_24" lines="b_122"/>
    </person>
    <person id="p_t_31_ret" depart="9790">
        <stop busStop="bs_17" duration="0.10"/>
        <ride busStop="bs_23" lines="b_143"/>
    </person>
    <person id="p_t_32_out" depart="8198">
        <stop busStop="bs_33" duration="0.10"/>
        <ride busStop="bs_24" lines="b_122"/>
    </person>
    <person id="p_t_32_ret" depart="9790">
        <stop busStop="bs_17" duration="0.10"/>
        <ride busStop="bs_5" lines="b_144"/>
    </person>
    <person id="p_t_33_out" depart="8268">
        <stop busStop="bs_36" duration="0.10"/>
        <ride busStop="bs_4" lines="b_124"/>
    </person>
    <person id="p_t_33_ret" depart="9995">
        <stop busStop="bs_23" duration="0.10"/>
        <ride busStop="bs_6" lines="b_151"/>
    </person>
    <person id="p_t_34_out" depart="8271">
        <stop busStop="bs_30" duration="0.10"/>
        <ride busStop="bs_24" lines="b_122"/>
    </person>
    <person id="p_t_34_ret" depart="9790">
        <stop busStop="bs_17" duration="0.10"/>
        <ride busStop="bs_23" lines="b_143"/>
    </person>
    <person id="p_t_35_out" depart="8276">
        <stop busStop="bs_28" duration="0.10"/>
        <ride busStop="bs_24" lines="b_122"/>
    </person>
    <person id="p_t_35_ret" depart="9790">
        <stop busStop="bs_17" duration="0.10"/>
        <ride busStop="bs_21" lines="b_143"/>
    </person>
    <person id="p_t_36_out" depart="8322">
        <stop busStop="bs_17" duration="0.10"/>
        <ride busStop="bs_23" lines="b_125"/>
    </person>
    <person id="p_t_36_ret" depart="9925">
        <stop busStop="bs_30" duration="0.10"/>
        <ride busStop="bs_28" lines="b_147"/>
    </person>
    <person id="p_t_37_out" depart="8410">
        <stop busStop="bs_4" duration="0.10"/>
        <ride busStop="bs_24" lines="b_124"/>
    </person>
    <person id="p_t_37_ret" depart="10018">
        <stop busStop="bs_17" duration="0.10"/>
        <ride busStop="bs_23" lines="b_151"/>
    </person>
    <person id="p_t_38_out" depart="8428">
        <stop busStop="bs_28" duration="0.10"/>
        <ride busStop="bs_24" lines="b_122"/>
    </person>
    <person id="p_t_38_ret" depart="9790">
        <stop busStop="bs_17" duration="0.10"/>
        <ride busStop="bs_21" lines="b_143"/>
    </person>
    <person id="p_t_39_out" depart="8487">
        <stop busStop="bs_28" duration="0.10"/>
        <ride busStop="bs_24" lines="b_124"/>
    </person>
    <person id="p_t_39_ret" depart="10018">
        <stop busStop="bs_0" duration="0.10"/>
        <ride busStop="bs_3" lines="b_149"/>
    </person>
    <person id="p_t_40_out" depart="8509">
        <stop busStop="bs_34" duration="0.10"/>
        <ride busStop="bs_24" lines="b_124"/>
    </person>
    <person id="p_t_40_ret" depart="10018">
        <stop busStop="bs_17" duration="0.10"/>
        <ride busStop="bs_23" lines="b_151"/>
    </person>
    <person id="p_t_41_out" depart="8609">
        <stop busStop="bs_28" duration="0.10"/>
        <ride busStop="bs_24" lines="b_129"/>
    </person>
    <person id="p_t_41_ret" depart="10210">
        <stop busStop="bs_17" duration="0.10"/>
        <ride busStop="bs_21" lines="b_151"/>
    </person>
    <person id="p_t_42_out" depart="8662">
        <stop busStop="bs_30" duration="0.10"/>
        <ride busStop="bs_24" lines="b_129"/>
    </person>
    <person id="p_t_42_ret" depart="10210">
        <stop busStop="bs_17" duration="0.10"/>
        <ride busStop="bs_23" lines="b_151"/>
    </person>
    <person id="p_t_43_out" depart="8682">
        <stop busStop="bs_4" duration="0.10"/>
        <ride busStop="bs_24" lines="b_124"/>
    </person>
    <person id="p_t_43_ret" depart="10018">
        <stop busStop="bs_17" duration="0.10"/>
        <ride busStop="bs_23" lines="b_151"/>
    </person>
    <person id="p_t_44_out" depart="8706">
        <stop busStop="bs_14" duration="0.10"/>
        <ride busStop="bs_13" lines="b_126"/>
    </person>
    <person id="p_t_44_ret" depart="10462">
        <stop busStop="bs_23" duration="0.10"/>
        <ride busStop="bs_14" lines="b_152"/>
    </person>
    <person id="p_t_45_out" depart="8707">
        <stop busStop="bs_34" duration="0.10"/>
        <ride busStop="bs_4" lines="b_133"/>
    </person>
    <person id="p_t_45_ret" depart="10595">
        <stop busStop="bs_23" duration="0.10"/>
        <ride busStop="bs_5" lines="b_156"/>
    </person>
    <person id="p_t_46_out" depart="8711">
        <stop busStop="bs_34" duration="0.10"/>
        <ride busStop="bs_24" lines="b_133"/>
    </person>
    <person id="p_t_46_ret" depart="10618">
        <stop busStop="bs_17" duration="0.10"/>
        <ride busStop="bs_5" lines="b_156"/>
    </person>
    <person id="p_t_47_out" depart="8714">
        <stop busStop="bs_21" duration="0.10"/>
        <ride busStop="bs_23" lines="b_131"/>
    </person>
    <person id="p_t_47_ret" depart="10345">
        <stop busStop="bs_4" duration="0.10"/>
        <ride busStop="bs_28" lines="b_150"/>
    </person>
    <person id="p_t_48_out" depart="8834">
        <stop busStop="bs_30" duration="0.10"/>
        <ride busStop="bs_24" lines="b_129"/>
    </person>
    <person id="p_t_48_ret" depart="10210">
        <stop busStop="bs_17" duration="0.10"/>
        <ride busStop="bs_23" lines="b_151"/>
    </person>
    <person id="p_t_49_out" depart="8837">
        <stop busStop="bs_29" duration="0.10"/>
        <ride busStop="bs_41" lines="b_127"/>
    </person>
    <person id="p_t_49_ret" depart="10551">
        <stop busStop="bs_17" duration="0.10"/>
        <ride busStop="bs_23" lines="b_156"/>
    </person>
    <person id="p_t_50_out" depart="9029">
        <stop busStop="bs_28" duration="0.10"/>
        <ride busStop="bs_24" lines="b_133"/>
    </person>
    <person id="p_t_50_ret" depart="10618">
        <stop busStop="bs_17" duration="0.10"/>
        <ride busStop="bs_21" lines="b_156"/>
    </person>
    <person id="p_t_51_out" depart="9046">
        <stop busStop="bs_31" duration="0.10"/>
        <ride busStop="bs_24" lines="b_133"/>
    </person>
    <person id="p_t_51_ret" depart="10618">
        <stop busStop="bs_17" duration="0.10"/>
        <ride busStop="bs_23" lines="b_156"/>
    </person>
    <person id="p_t_52_out" depart="9068">
        <stop busStop="bs_31" duration="0.10"/>
        <ride busStop="bs_24" lines="b_133"/>
    </person>
    <person id="p_t_52_ret" depart="10618">
        <stop busStop="bs_17" duration="0.10"/>
        <ride busStop="bs_23" lines="b_156"/>
    </person>
    <person id="p_t_53_out" depart="9089">
        <stop busStop="bs_34" duration="0.10"/>
        <ride busStop="bs_24" lines="b_133"/>
    </person>
    <person id="p_t_53_ret" depart="10618">
        <stop busStop="bs_17" duration="0.10"/>
        <ride busStop="bs_5" lines="b_156"/>
    </person>
    <person id="p_t_54_out" depart="9289">
        <stop busStop="bs_33" duration="0.10"/>
        <ride busStop="bs_24" lines="b_142"/>
    </person>
    <person id="p_t_54_ret" depart="11050">
        <stop busStop="bs_17" duration="0.10"/>
        <ride busStop="bs_23" lines="b_162"/>
    </person>
    <person id="p_t_55_out" depart="9294">
        <stop busStop="bs_33" duration="0.10"/>
        <ride busStop="bs_24" lines="b_142"/>
    </person>
    <person id="p_t_55_ret" depart="11050">
        <stop busStop="bs_17" duration="0.10"/>
        <ride busStop="bs_5" lines="b_162"/>
    </person>
    <person id="p_t_56_out" depart="9329">
        <stop busStop="bs_35" duration="0.10"/>
        <ride busStop="bs_24" lines="b_142"/>
    </person>
    <person id="p_t_56_ret" depart="11050">
        <stop busStop="bs_17" duration="0.10"/>
        <ride busStop="bs_6" lines="b_162"/>
    </person>
    <person id="p_t_57_out" depart="9399">
        <stop busStop="bs_36" duration="0.10"/>
        <ride busStop="bs_4" lines="b_141"/>
    </person>
    <person id="p_t_57_ret" depart="11195">
        <stop busStop="bs_23" duration="0.10"/>
        <ride busStop="bs_6" lines="b_169"/>
    </person>
    <person id="p_t_58_out" depart="9464">
        <stop busStop="bs_21" duration="0.10"/>
        <ride busStop="bs_23" lines="b_143"/>
    </person>
    <person id="p_t_58_ret" depart="11175">
        <stop busStop="bs_30" duration="0.10"/>
        <ride busStop="bs_28" lines="b_165"/>
    </person>
    <person id="p_t_59_out" depart="9476">
        <stop busStop="bs_33" duration="0.10"/>
        <ride busStop="bs_30" lines="b_142"/>
    </person>
    <person id="p_t_59_ret" depart="10998">
        <stop busStop="bs_23" duration="0.10"/>
        <ride busStop="bs_5" lines="b_162"/>
    </person>
    <person id="p_t_60_out" depart="9483">
        <stop busStop="bs_17" duration="0.10"/>
        <ride busStop="bs_23" lines="b_143"/>
    </person>
    <person id="p_t_60_ret" depart="11175">
        <stop busStop="bs_30" duration="0.10"/>
        <ride busStop="bs_24" lines="b_165"/>
    </person>
    <person id="p_t_61_out" depart="9588">
        <stop busStop="bs_4" duration="0.10"/>
        <ride busStop="bs_24" lines="b_141"/>
    </person>
    <person id="p_t_61_ret" depart="11218">
        <stop busStop="bs_17" duration="0.10"/>
        <ride busStop="bs_5" lines="b_169"/>
    </person>
    <person id="p_t_62_out" depart="9650">
        <stop busStop="bs_32" duration="0.10"/>
        <ride busStop="bs_4" lines="b_141"/>
    </person>
    <person id="p_t_62_ret" depart="11195">
        <stop busStop="bs_23" duration="0.10"/>
        <ride busStop="bs_5" lines="b_169"/>
    </person>
    <person id="p_t_63_out" depart="9744">
        <stop busStop="bs_33" duration="0.10"/>
        <ride busStop="bs_24" lines="b_147"/>
    </person>
    <person id="p_t_63_ret" depart="11470">
        <stop busStop="bs_17" duration="0.10"/>
        <ride busStop="bs_5" lines="b_169"/>
    </person>
    <person id="p_t_64_out" depart="9775">
        <stop busStop="bs_34" duration="0.10"/>
        <ride busStop="bs_24" lines="b_141"/>
    </person>
    <person id="p_t_64_ret" depart="11218">
        <stop busStop="bs_17" duration="0.10"/>
        <ride busStop="bs_13" lines="b_170"/>
    </person>
    <person id="p_t_65_out" depart="9781">
        <stop busStop="bs_28" duration="0.10"/>
        <ride busStop="bs_24" lines="b_141"/>
    </person>
    <person id="p_t_65_ret" depart="11218">
        <stop busStop="bs_17" duration="0.10"/>
        <ride busStop="bs_21" lines="b_169"/>
    </person>
    <person id="p_t_66_out" depart="9804">
        <stop busStop="bs_22" duration="0.10"/>
        <ride busStop="bs_27" lines="b_146"/>
    </person>
    <person id="p_t_66_ret" depart="11392">
        <stop busStop="bs_17" duration="0.10"/>
        <ride busStop="bs_21" lines="b_169"/>
    </person>
    <person id="p_t_67_out" depart="9814">
        <stop busStop="bs_34" duration="0.10"/>
        <ride busStop="bs_4" lines="b_150"/>
    </person>
    <person id="p_t_67_ret" depart="11795">
        <stop busStop="bs_29" duration="0.10"/>
        <ride busStop="bs_44" lines="b_171"/>
    </person>
    <person id="p_t_68_out" depart="9844">
        <stop busStop="bs_32" duration="0.10"/>
        <ride busStop="bs_24" lines="b_150"/>
    </person>
    <person id="p_t_68_ret" depart="11818">
        <stop busStop="bs_17" duration="0.10"/>
        <ride busStop="bs_5" lines="b_174"/>
    </person>
    <person id="p_t_69_out" depart="9886">
        <stop busStop="bs_32" duration="0.10"/>
        <ride busStop="bs_4" lines="b_150"/>
    </person>
    <person id="p_t_69_ret" depart="11795">
        <stop busStop="bs_23" duration="0.10"/>
        <ride busStop="bs_6" lines="b_174"/>
    </person>
    <person id="p_t_70_out" depart="9905">
        <stop busStop="bs_35" duration="0.10"/>
        <ride busStop="bs_30" lines="b_147"/>
    </person>
    <person id="p_t_70_ret" depart="11418">
        <stop busStop="bs_23" duration="0.10"/>
        <ride busStop="bs_6" lines="b_169"/>
    </person>
    <person id="p_t_71_out" depart="10010">
        <stop busStop="bs_30" duration="0.10"/>
        <ride busStop="bs_24" lines="b_147"/>
    </person>
    <person id="p_t_71_ret" depart="11470">
        <stop busStop="bs_17" duration="0.10"/>
        <ride busStop="bs_23" lines="b_169"/>
    </person>
    <person id="p_t_72_out" depart="10022">
        <stop busStop="bs_32" duration="0.10"/>
        <ride busStop="bs_24" lines="b_150"/>
    </person>
    <person id="p_t_72_ret" depart="11818">
        <stop busStop="bs_17" duration="0.10"/>
        <ride busStop="bs_6" lines="b_174"/>
    </person>
    <person id="p_t_73_out" depart="10081">
        <stop busStop="bs_38" duration="0.10"/>
        <ride busStop="bs_24" lines="b_150"/>
    </person>
    <person id="p_t_73_ret" depart="11818">
        <stop busStop="bs_17" duration="0.10"/>
        <ride busStop="bs_6" lines="b_174"/>
    </person>
    <person id="p_t_74_out" depart="10145">
        <stop busStop="bs_33" duration="0.10"/>
        <ride busStop="bs_24" lines="b_153"/>
    </person>
    <person id="p_t_74_ret" depart="11890">
        <stop busStop="bs_17" duration="0.10"/>
        <ride busStop="bs_5" lines="b_174"/>
    </person>
    <person id="p_t_75_out" depart="10149">
        <stop busStop="bs_26" duration="0.10"/>
        <ride busStop="bs_41" lines="b_145"/>
    </person>
    <person id="p_t_75_ret" depart="11751">
        <stop busStop="bs_18" duration="0.10"/>
        <ride busStop="bs_17" lines="b_174"/>
    </person>
    <person id="p_t_76_out" depart="10181">
        <stop busStop="bs_35" duration="0.10"/>
        <ride busStop="bs_24" lines="b_153"/>
    </person>
    <person id="p_t_76_ret" depart="11890">
        <stop busStop="bs_17" duration="0.10"/>
        <ride busStop="bs_6" lines="b_174"/>
    </person>
    <person id="p_t_77_out" depart="10212">
        <stop busStop="bs_28" duration="0.10"/>
        <ride busStop="bs_24" lines="b_150"/>
    </person>
    <person id="p_t_77_ret" depart="11818">
        <stop busStop="bs_17" duration="0.10"/>
        <ride busStop="bs_21" lines="b_174"/>
    </person>
    <person id="p_t_78_out" depart="10246">
        <stop busStop="bs_33" duration="0.10"/>
        <ride busStop="bs_24" lines="b_153"/>
    </person>
    <person id="p_t_78_ret" depart="11890">
        <stop busStop="bs_17" duration="0.10"/>
        <ride busStop="bs_5" lines="b_174"/>
    </person>
    <person id="p_t_79_out" depart="10278">
        <stop busStop="bs_28" duration="0.10"/>
        <ride busStop="bs_24" lines="b_150"/>
    </person>
    <person id="p_t_79_ret" depart="11818">
        <stop busStop="bs_17" duration="0.10"/>
        <ride busStop="bs_21" lines="b_174"/>
    </person>
    <person id="p_t_80_out" depart="10322">
        <stop busStop="bs_28" duration="0.10"/>
        <ride busStop="bs_24" lines="b_150"/>
    </person>
    <person id="p_t_80_ret" depart="11818">
        <stop busStop="bs_17" duration="0.10"/>
        <ride busStop="bs_21" lines="b_174"/>
    </person>
    <person id="p_t_81_out" depart="10480">
        <stop busStop="bs_35" duration="0.10"/>
        <ride busStop="bs_30" lines="b_160"/>
    </person>
    <person id="p_t_81_ret" depart="12258">
        <stop busStop="bs_23" duration="0.10"/>
        <ride busStop="bs_12" lines="b_179"/>
    </person>
    <person id="p_t_82_out" depart="10574">
        <stop busStop="bs_3" duration="0.10"/>
        <ride busStop="bs_4" lines="b_158"/>
    </person>
    <person id="p_t_82_ret" depart="12313">
        <stop busStop="bs_29" duration="0.10"/>
        <ride busStop="bs_44" lines="b_180"/>
    </person>
    <person id="p_t_83_out" depart="10577">
        <stop busStop="bs_21" duration="0.10"/>
        <ride busStop="bs_23" lines="b_156"/>
    </person>
    <person id="p_t_83_ret" depart="12025">
        <stop busStop="bs_30" duration="0.10"/>
        <ride busStop="bs_28" lines="b_178"/>
    </person>
    <person id="p_t_84_out" depart="10627">
        <stop busStop="bs_34" duration="0.10"/>
        <ride busStop="bs_24" lines="b_159"/>
    </person>
    <person id="p_t_84_ret" depart="12418">
        <stop busStop="bs_17" duration="0.10"/>
        <ride busStop="bs_14" lines="b_188"/>
    </person>
    <person id="p_t_85_out" depart="10645">
        <stop busStop="bs_35" duration="0.10"/>
        <ride busStop="bs_24" lines="b_160"/>
    </person>
    <person id="p_t_85_ret" depart="12310">
        <stop busStop="bs_17" duration="0.10"/>
        <ride busStop="bs_6" lines="b_181"/>
    </person>
    <person id="p_t_86_out" depart="10656">
        <stop busStop="bs_33" duration="0.10"/>
        <ride busStop="bs_24" lines="b_160"/>
    </person>
    <person id="p_t_86_ret" depart="12310">
        <stop busStop="bs_17" duration="0.10"/>
        <ride busStop="bs_5" lines="b_181"/>
    </person>
    <person id="p_t_87_out" depart="10711">
        <stop busStop="bs_35" duration="0.10"/>
        <ride busStop="bs_24" lines="b_160"/>
    </person>
    <person id="p_t_87_ret" depart="12310">
        <stop busStop="bs_17" duration="0.10"/>
        <ride busStop="bs_6" lines="b_181"/>
    </person>
    <person id="p_t_88_out" depart="10738">
        <stop busStop="bs_34" duration="0.10"/>
        <ride busStop="bs_24" lines="b_159"/>
    </person>
    <person id="p_t_88_ret" depart="12418">
        <stop busStop="bs_17" duration="0.10"/>
        <ride busStop="bs_13" lines="b_188"/>
    </person>
    <person id="p_t_89_out" depart="10798">
        <stop busStop="bs_31" duration="0.10"/>
        <ride busStop="bs_24" lines="b_159"/>
    </person>
    <person id="p_t_89_ret" depart="12418">
        <stop busStop="bs_0" duration="0.10"/>
        <ride busStop="bs_3" lines="b_185"/>
    </person>
    <person id="p_t_90_out" depart="10801">
        <stop busStop="bs_30" duration="0.10"/>
        <ride busStop="bs_24" lines="b_160"/>
    </person>
    <person id="p_t_90_ret" depart="12310">
        <stop busStop="bs_17" duration="0.10"/>
        <ride busStop="bs_23" lines="b_181"/>
    </person>
    <person id="p_t_91_out" depart="10834">
        <stop busStop="bs_32" duration="0.10"/>
        <ride busStop="bs_4" lines="b_159"/>
    </person>
    <person id="p_t_91_ret" depart="12395">
        <stop busStop="bs_23" duration="0.10"/>
        <ride busStop="bs_5" lines="b_181"/>
    </person>
    <person id="p_t_92_out" depart="10834">
        <stop busStop="bs_35" duration="0.10"/>
        <ride busStop="bs_24" lines="b_165"/>
    </person>
    <person id="p_t_92_ret" depart="12730">
        <stop busStop="bs_17" duration="0.10"/>
        <ride busStop="bs_11" lines="b_188"/>
    </person>
    <person id="p_t_93_out" depart="10865">
        <stop busStop="bs_33" duration="0.10"/>
        <ride busStop="bs_24" lines="b_165"/>
    </person>
    <person id="p_t_93_ret" depart="12730">
        <stop busStop="bs_17" duration="0.10"/>
        <ride busStop="bs_5" lines="b_187"/>
    </person>
    <person id="p_t_94_out" depart="10871">
        <stop busStop="bs_31" duration="0.10"/>
        <ride busStop="bs_24" lines="b_159"/>
    </person>
    <person id="p_t_94_ret" depart="12418">
        <stop busStop="bs_17" duration="0.10"/>
        <ride busStop="bs_14" lines="b_188"/>
    </person>
    <person id="p_t_95_out" depart="10888">
        <stop busStop="bs_34" duration="0.10"/>
        <ride busStop="bs_4" lines="b_159"/>
    </person>
    <person id="p_t_95_ret" depart="12395">
        <stop busStop="bs_23" duration="0.10"/>
        <ride busStop="bs_5" lines="b_181"/>
    </person>
    <person id="p_t_96_out" depart="10906">
        <stop busStop="bs_35" duration="0.10"/>
        <ride busStop="bs_24" lines="b_165"/>
    </person>
    <person id="p_t_96_ret" depart="12730">
        <stop busStop="bs_17" duration="0.10"/>
        <ride busStop="bs_6" lines="b_187"/>
    </person>
    <person id="p_t_97_out" depart="10926">
        <stop busStop="bs_28" duration="0.10"/>
        <ride busStop="bs_24" lines="b_159"/>
    </person>
    <person id="p_t_97_ret" depart="12418">
        <stop busStop="bs_0" duration="0.10"/>
        <ride busStop="bs_2" lines="b_185"/>
    </person>
    <person id="p_t_98_out" depart="11035">
        <stop busStop="bs_27" duration="0.10"/>
        <ride busStop="bs_43" lines="b_164"/>
    </person>
    <person id="p_t_98_ret" depart="12708">
        <stop busStop="bs_17" duration="0.10"/>